  Page 1                                    Thu Oct 31 14:23:22 2019

  ******************************************************************
  *                           E P A N E T                          *
  *                   Hydraulic and Water Quality                  *
  *                   Analysis for Pipe Networks                   *
  *                         Version 2.1                            *
  ******************************************************************
  
  Analysis begun Thu Oct 31 14:23:22 2019

   
  Hydraulic Status:
  -----------------------------------------------------------------------
     0:00:00: Balanced after 6 trials
     0:00:00: Reservoir 10 is emptying
     0:00:00: Reservoir 65 is emptying
     0:00:00: Reservoir 165 is emptying
   
   
  Hydraulic Status:
  -----------------------------------------------------------------------
     0:00:00: Balanced after 6 trials
     0:00:00: Reservoir 10 is emptying
     0:00:00: Reservoir 65 is emptying
     0:00:00: Reservoir 165 is emptying
   
   
  Hydraulic Status:
  -----------------------------------------------------------------------
     0:00:00: Balanced after 6 trials
     0:00:00: Reservoir 10 is emptying
     0:00:00: Reservoir 65 is emptying
     0:00:00: Reservoir 165 is emptying
   
   
  Hydraulic Status:
  -----------------------------------------------------------------------
     0:00:00: Balanced after 6 trials
     0:00:00: Reservoir 10 is emptying
     0:00:00: Reservoir 65 is emptying
     0:00:00: Reservoir 165 is emptying
   
   
  Hydraulic Status:
  -----------------------------------------------------------------------
     0:00:00: Balanced after 6 trials
     0:00:00: Reservoir 10 is emptying
     0:00:00: Reservoir 65 is emptying
     0:00:00: Reservoir 165 is emptying
   
   
  Hydraulic Status:
  -----------------------------------------------------------------------
     0:00:00: Balanced after 6 trials
     0:00:00: Reservoir 10 is emptying
     0:00:00: Reservoir 65 is emptying
     0:00:00: Reservoir 165 is emptying
   
   
  Hydraulic Status:
  -----------------------------------------------------------------------
     0:00:00: Balanced after 6 trials
     0:00:00: Reservoir 10 is emptying
     0:00:00: Reservoir 65 is emptying
     0:00:00: Reservoir 165 is emptying
   
   
  Hydraulic Status:
  -----------------------------------------------------------------------
     0:00:00: Balanced after 6 trials
     0:00:00: Reservoir 10 is emptying
     0:00:00: Reservoir 65 is emptying
     0:00:00: Reservoir 165 is emptying
   
   
  Hydraulic Status:
  -----------------------------------------------------------------------
     0:00:00: Balanced after 6 trials
     0:00:00: Reservoir 10 is emptying
     0:00:00: Reservoir 65 is emptying
     0:00:00: Reservoir 165 is emptying
   
   
  Hydraulic Status:
  -----------------------------------------------------------------------
     0:00:00: Balanced after 6 trials
     0:00:00: Reservoir 10 is emptying
     0:00:00: Reservoir 65 is emptying
     0:00:00: Reservoir 165 is emptying
   
   
  Hydraulic Status:
  -----------------------------------------------------------------------
     0:00:00: Balanced after 6 trials
     0:00:00: Reservoir 10 is emptying
     0:00:00: Reservoir 65 is emptying
     0:00:00: Reservoir 165 is emptying
   
   
  Hydraulic Status:
  -----------------------------------------------------------------------
     0:00:00: Balanced after 6 trials
     0:00:00: Reservoir 10 is emptying
     0:00:00: Reservoir 65 is emptying
     0:00:00: Reservoir 165 is emptying
   
   
  Hydraulic Status:
  -----------------------------------------------------------------------
     0:00:00: Balanced after 7 trials
     0:00:00: Reservoir 10 is emptying
     0:00:00: Reservoir 65 is emptying
     0:00:00: Reservoir 165 is emptying
   
   
  Hydraulic Status:
  -----------------------------------------------------------------------
     0:00:00: Balanced after 6 trials
     0:00:00: Reservoir 10 is emptying
     0:00:00: Reservoir 65 is emptying
     0:00:00: Reservoir 165 is emptying
   
   
  Hydraulic Status:
  -----------------------------------------------------------------------
     0:00:00: Balanced after 6 trials
     0:00:00: Reservoir 10 is emptying
     0:00:00: Reservoir 65 is filling
     0:00:00: Reservoir 165 is emptying
   
   
  Hydraulic Status:
  -----------------------------------------------------------------------
     0:00:00: Balanced after 6 trials
     0:00:00: Reservoir 10 is emptying
     0:00:00: Reservoir 65 is emptying
     0:00:00: Reservoir 165 is emptying
   
   
  Hydraulic Status:
  -----------------------------------------------------------------------
     0:00:00: Balanced after 6 trials
     0:00:00: Reservoir 10 is emptying
     0:00:00: Reservoir 65 is emptying
     0:00:00: Reservoir 165 is emptying
   
   
  Hydraulic Status:
  -----------------------------------------------------------------------
     0:00:00: Balanced after 6 trials
     0:00:00: Reservoir 10 is emptying
     0:00:00: Reservoir 65 is emptying
     0:00:00: Reservoir 165 is emptying
   
   
  Hydraulic Status:
  -----------------------------------------------------------------------
     0:00:00: Balanced after 6 trials
     0:00:00: Reservoir 10 is emptying
     0:00:00: Reservoir 65 is emptying
     0:00:00: Reservoir 165 is emptying
   
   
  Hydraulic Status:
  -----------------------------------------------------------------------
     0:00:00: Balanced after 6 trials
     0:00:00: Reservoir 10 is emptying
     0:00:00: Reservoir 65 is emptying
     0:00:00: Reservoir 165 is emptying
   
   
  Hydraulic Status:
  -----------------------------------------------------------------------
     0:00:00: Balanced after 6 trials
     0:00:00: Reservoir 10 is emptying
     0:00:00: Reservoir 65 is emptying
     0:00:00: Reservoir 165 is emptying
   
   
  Hydraulic Status:
  -----------------------------------------------------------------------
     0:00:00: Balanced after 5 trials
     0:00:00: Reservoir 10 is emptying
     0:00:00: Reservoir 65 is emptying
     0:00:00: Reservoir 165 is emptying
   
   
  Hydraulic Status:
  -----------------------------------------------------------------------
     0:00:00: Balanced after 6 trials
     0:00:00: Reservoir 10 is emptying
     0:00:00: Reservoir 65 is emptying
     0:00:00: Reservoir 165 is emptying
   
   
  Hydraulic Status:
  -----------------------------------------------------------------------
     0:00:00: Balanced after 6 trials
     0:00:00: Reservoir 10 is emptying
     0:00:00: Reservoir 65 is emptying
     0:00:00: Reservoir 165 is emptying
   
   
  Hydraulic Status:
  -----------------------------------------------------------------------
     0:00:00: Balanced after 6 trials
     0:00:00: Reservoir 10 is emptying
     0:00:00: Reservoir 65 is emptying
     0:00:00: Reservoir 165 is emptying
   
   
  Hydraulic Status:
  -----------------------------------------------------------------------
     0:00:00: Balanced after 6 trials
     0:00:00: Reservoir 10 is emptying
     0:00:00: Reservoir 65 is filling
     0:00:00: Reservoir 165 is emptying
   
   
  Hydraulic Status:
  -----------------------------------------------------------------------
     0:00:00: Balanced after 6 trials
     0:00:00: Reservoir 10 is emptying
     0:00:00: Reservoir 65 is emptying
     0:00:00: Reservoir 165 is emptying
   
   
  Hydraulic Status:
  -----------------------------------------------------------------------
     0:00:00: Balanced after 6 trials
     0:00:00: Reservoir 10 is emptying
     0:00:00: Reservoir 65 is emptying
     0:00:00: Reservoir 165 is emptying
   
   
  Hydraulic Status:
  -----------------------------------------------------------------------
     0:00:00: Balanced after 6 trials
     0:00:00: Reservoir 10 is emptying
     0:00:00: Reservoir 65 is emptying
     0:00:00: Reservoir 165 is emptying
   
   
  Hydraulic Status:
  -----------------------------------------------------------------------
     0:00:00: Balanced after 6 trials
     0:00:00: Reservoir 10 is emptying
     0:00:00: Reservoir 65 is emptying
     0:00:00: Reservoir 165 is emptying
   
   
  Hydraulic Status:
  -----------------------------------------------------------------------
     0:00:00: Balanced after 6 trials
     0:00:00: Reservoir 10 is emptying
     0:00:00: Reservoir 65 is emptying
     0:00:00: Reservoir 165 is emptying
   
   
  Hydraulic Status:
  -----------------------------------------------------------------------
     0:00:00: Balanced after 6 trials
     0:00:00: Reservoir 10 is emptying
     0:00:00: Reservoir 65 is emptying
     0:00:00: Reservoir 165 is emptying
   
   
  Hydraulic Status:
  -----------------------------------------------------------------------
     0:00:00: Balanced after 6 trials
     0:00:00: Reservoir 10 is emptying
     0:00:00: Reservoir 65 is emptying
     0:00:00: Reservoir 165 is emptying
   
   
  Hydraulic Status:
  -----------------------------------------------------------------------
     0:00:00: Balanced after 6 trials
     0:00:00: Reservoir 10 is emptying
     0:00:00: Reservoir 65 is emptying
     0:00:00: Reservoir 165 is emptying
   
   
  Hydraulic Status:
  -----------------------------------------------------------------------
     0:00:00: Balanced after 6 trials
     0:00:00: Reservoir 10 is emptying
     0:00:00: Reservoir 65 is emptying
     0:00:00: Reservoir 165 is emptying
   
   
  Hydraulic Status:
  -----------------------------------------------------------------------
     0:00:00: Balanced after 6 trials
     0:00:00: Reservoir 10 is emptying
     0:00:00: Reservoir 65 is emptying
     0:00:00: Reservoir 165 is emptying
   
   
  Hydraulic Status:
  -----------------------------------------------------------------------
     0:00:00: Balanced after 6 trials
     0:00:00: Reservoir 10 is emptying
     0:00:00: Reservoir 65 is emptying
     0:00:00: Reservoir 165 is emptying
   
   
  Hydraulic Status:
  -----------------------------------------------------------------------
     0:00:00: Balanced after 6 trials
     0:00:00: Reservoir 10 is emptying
     0:00:00: Reservoir 65 is emptying
     0:00:00: Reservoir 165 is emptying
   
   
  Hydraulic Status:
  -----------------------------------------------------------------------
     0:00:00: Balanced after 6 trials
     0:00:00: Reservoir 10 is emptying
     0:00:00: Reservoir 65 is emptying
     0:00:00: Reservoir 165 is emptying
   
   
  Hydraulic Status:
  -----------------------------------------------------------------------
     0:00:00: Balanced after 7 trials
     0:00:00: Reservoir 10 is emptying
     0:00:00: Reservoir 65 is emptying
     0:00:00: Reservoir 165 is emptying
   
   
  Hydraulic Status:
  -----------------------------------------------------------------------
     0:00:00: Balanced after 6 trials
     0:00:00: Reservoir 10 is emptying
     0:00:00: Reservoir 65 is emptying
     0:00:00: Reservoir 165 is emptying
   
   
  Hydraulic Status:
  -----------------------------------------------------------------------
     0:00:00: Balanced after 6 trials
     0:00:00: Reservoir 10 is emptying
     0:00:00: Reservoir 65 is emptying
     0:00:00: Reservoir 165 is emptying
   
   
  Hydraulic Status:
  -----------------------------------------------------------------------
     0:00:00: Balanced after 6 trials
     0:00:00: Reservoir 10 is emptying
     0:00:00: Reservoir 65 is emptying
     0:00:00: Reservoir 165 is emptying
   
   
  Hydraulic Status:
  -----------------------------------------------------------------------
     0:00:00: Balanced after 6 trials
     0:00:00: Reservoir 10 is emptying
     0:00:00: Reservoir 65 is emptying
     0:00:00: Reservoir 165 is emptying
   
   
  Hydraulic Status:
  -----------------------------------------------------------------------
     0:00:00: Balanced after 6 trials
     0:00:00: Reservoir 10 is emptying
     0:00:00: Reservoir 65 is emptying
     0:00:00: Reservoir 165 is emptying
   
   
  Hydraulic Status:
  -----------------------------------------------------------------------
     0:00:00: Balanced after 6 trials
     0:00:00: Reservoir 10 is emptying
     0:00:00: Reservoir 65 is emptying
     0:00:00: Reservoir 165 is emptying
   
   
  Hydraulic Status:
  -----------------------------------------------------------------------
     0:00:00: Balanced after 6 trials
     0:00:00: Reservoir 10 is emptying
     0:00:00: Reservoir 65 is emptying
     0:00:00: Reservoir 165 is emptying
   
   
  Hydraulic Status:
  -----------------------------------------------------------------------
     0:00:00: Balanced after 6 trials
     0:00:00: Reservoir 10 is emptying
     0:00:00: Reservoir 65 is emptying
     0:00:00: Reservoir 165 is emptying
   
   
  Hydraulic Status:
  -----------------------------------------------------------------------
     0:00:00: Balanced after 6 trials
     0:00:00: Reservoir 10 is emptying
     0:00:00: Reservoir 65 is emptying
     0:00:00: Reservoir 165 is emptying
   
   
  Hydraulic Status:
  -----------------------------------------------------------------------
     0:00:00: Balanced after 6 trials
     0:00:00: Reservoir 10 is emptying
     0:00:00: Reservoir 65 is emptying
     0:00:00: Reservoir 165 is emptying
   
   
  Hydraulic Status:
  -----------------------------------------------------------------------
     0:00:00: Balanced after 6 trials
     0:00:00: Reservoir 10 is emptying
     0:00:00: Reservoir 65 is emptying
     0:00:00: Reservoir 165 is emptying
   
   
  Hydraulic Status:
  -----------------------------------------------------------------------
     0:00:00: Balanced after 6 trials
     0:00:00: Reservoir 10 is emptying
     0:00:00: Reservoir 65 is emptying
     0:00:00: Reservoir 165 is emptying
   
   
  Hydraulic Status:
  -----------------------------------------------------------------------
     0:00:00: Balanced after 6 trials
     0:00:00: Reservoir 10 is emptying
     0:00:00: Reservoir 65 is emptying
     0:00:00: Reservoir 165 is emptying
   
   
  Hydraulic Status:
  -----------------------------------------------------------------------
     0:00:00: Balanced after 6 trials
     0:00:00: Reservoir 10 is emptying
     0:00:00: Reservoir 65 is emptying
     0:00:00: Reservoir 165 is emptying
   
   
  Hydraulic Status:
  -----------------------------------------------------------------------
     0:00:00: Balanced after 6 trials
     0:00:00: Reservoir 10 is emptying
     0:00:00: Reservoir 65 is emptying
     0:00:00: Reservoir 165 is emptying
   
   
  Hydraulic Status:
  -----------------------------------------------------------------------
     0:00:00: Balanced after 6 trials
     0:00:00: Reservoir 10 is emptying
     0:00:00: Reservoir 65 is emptying
     0:00:00: Reservoir 165 is emptying
   
   
  Hydraulic Status:
  -----------------------------------------------------------------------
     0:00:00: Balanced after 6 trials
     0:00:00: Reservoir 10 is emptying
     0:00:00: Reservoir 65 is emptying
     0:00:00: Reservoir 165 is emptying
   
   
  Hydraulic Status:
  -----------------------------------------------------------------------
     0:00:00: Balanced after 6 trials
     0:00:00: Reservoir 10 is emptying
     0:00:00: Reservoir 65 is filling
     0:00:00: Reservoir 165 is emptying
   
   
  Hydraulic Status:
  -----------------------------------------------------------------------
     0:00:00: Balanced after 6 trials
     0:00:00: Reservoir 10 is emptying
     0:00:00: Reservoir 65 is closed
     0:00:00: Reservoir 165 is emptying
   
   
  Hydraulic Status:
  -----------------------------------------------------------------------
     0:00:00: Balanced after 7 trials
     0:00:00: Reservoir 10 is emptying
     0:00:00: Reservoir 65 is emptying
     0:00:00: Reservoir 165 is emptying
   
   
  Hydraulic Status:
  -----------------------------------------------------------------------
     0:00:00: Balanced after 6 trials
     0:00:00: Reservoir 10 is emptying
     0:00:00: Reservoir 65 is filling
     0:00:00: Reservoir 165 is emptying
   
   
  Hydraulic Status:
  -----------------------------------------------------------------------
     0:00:00: Balanced after 6 trials
     0:00:00: Reservoir 10 is emptying
     0:00:00: Reservoir 65 is emptying
     0:00:00: Reservoir 165 is emptying
   
   
  Hydraulic Status:
  -----------------------------------------------------------------------
     0:00:00: Balanced after 6 trials
     0:00:00: Reservoir 10 is emptying
     0:00:00: Reservoir 65 is emptying
     0:00:00: Reservoir 165 is emptying
   
   
  Hydraulic Status:
  -----------------------------------------------------------------------
     0:00:00: Balanced after 6 trials
     0:00:00: Reservoir 10 is emptying
     0:00:00: Reservoir 65 is emptying
     0:00:00: Reservoir 165 is emptying
   
   
  Hydraulic Status:
  -----------------------------------------------------------------------
     0:00:00: Balanced after 6 trials
     0:00:00: Reservoir 10 is emptying
     0:00:00: Reservoir 65 is emptying
     0:00:00: Reservoir 165 is emptying
   
   
  Hydraulic Status:
  -----------------------------------------------------------------------
     0:00:00: Balanced after 6 trials
     0:00:00: Reservoir 10 is emptying
     0:00:00: Reservoir 65 is emptying
     0:00:00: Reservoir 165 is emptying
   
   
  Hydraulic Status:
  -----------------------------------------------------------------------
     0:00:00: Balanced after 6 trials
     0:00:00: Reservoir 10 is emptying
     0:00:00: Reservoir 65 is emptying
     0:00:00: Reservoir 165 is emptying
   
   
  Hydraulic Status:
  -----------------------------------------------------------------------
     0:00:00: Balanced after 6 trials
     0:00:00: Reservoir 10 is emptying
     0:00:00: Reservoir 65 is emptying
     0:00:00: Reservoir 165 is emptying
   
   
  Hydraulic Status:
  -----------------------------------------------------------------------
     0:00:00: Balanced after 6 trials
     0:00:00: Reservoir 10 is emptying
     0:00:00: Reservoir 65 is emptying
     0:00:00: Reservoir 165 is emptying
   
   
  Hydraulic Status:
  -----------------------------------------------------------------------
     0:00:00: Balanced after 6 trials
     0:00:00: Reservoir 10 is emptying
     0:00:00: Reservoir 65 is emptying
     0:00:00: Reservoir 165 is emptying
   
   
  Hydraulic Status:
  -----------------------------------------------------------------------
     0:00:00: Balanced after 6 trials
     0:00:00: Reservoir 10 is emptying
     0:00:00: Reservoir 65 is emptying
     0:00:00: Reservoir 165 is emptying
   
   
  Hydraulic Status:
  -----------------------------------------------------------------------
     0:00:00: Balanced after 6 trials
     0:00:00: Reservoir 10 is emptying
     0:00:00: Reservoir 65 is emptying
     0:00:00: Reservoir 165 is emptying
   
   
  Hydraulic Status:
  -----------------------------------------------------------------------
     0:00:00: Balanced after 6 trials
     0:00:00: Reservoir 10 is emptying
     0:00:00: Reservoir 65 is emptying
     0:00:00: Reservoir 165 is emptying
   
   
  Hydraulic Status:
  -----------------------------------------------------------------------
     0:00:00: Balanced after 6 trials
     0:00:00: Reservoir 10 is emptying
     0:00:00: Reservoir 65 is emptying
     0:00:00: Reservoir 165 is emptying
   
   
  Hydraulic Status:
  -----------------------------------------------------------------------
     0:00:00: Balanced after 6 trials
     0:00:00: Reservoir 10 is emptying
     0:00:00: Reservoir 65 is emptying
     0:00:00: Reservoir 165 is emptying
   
   
  Hydraulic Status:
  -----------------------------------------------------------------------
     0:00:00: Balanced after 6 trials
     0:00:00: Reservoir 10 is emptying
     0:00:00: Reservoir 65 is emptying
     0:00:00: Reservoir 165 is emptying
   
   
  Hydraulic Status:
  -----------------------------------------------------------------------
     0:00:00: Balanced after 7 trials
     0:00:00: Reservoir 10 is emptying
     0:00:00: Reservoir 65 is emptying
     0:00:00: Reservoir 165 is emptying
   
   
  Hydraulic Status:
  -----------------------------------------------------------------------
     0:00:00: Balanced after 6 trials
     0:00:00: Reservoir 10 is emptying
     0:00:00: Reservoir 65 is filling
     0:00:00: Reservoir 165 is emptying
   
   
  Hydraulic Status:
  -----------------------------------------------------------------------
     0:00:00: Balanced after 6 trials
     0:00:00: Reservoir 10 is emptying
     0:00:00: Reservoir 65 is emptying
     0:00:00: Reservoir 165 is emptying
   
   
  Hydraulic Status:
  -----------------------------------------------------------------------
     0:00:00: Balanced after 6 trials
     0:00:00: Reservoir 10 is emptying
     0:00:00: Reservoir 65 is emptying
     0:00:00: Reservoir 165 is emptying
   
   
  Hydraulic Status:
  -----------------------------------------------------------------------
     0:00:00: Balanced after 6 trials
     0:00:00: Reservoir 10 is emptying
     0:00:00: Reservoir 65 is emptying
     0:00:00: Reservoir 165 is emptying
   
   
  Hydraulic Status:
  -----------------------------------------------------------------------
     0:00:00: Balanced after 6 trials
     0:00:00: Reservoir 10 is emptying
     0:00:00: Reservoir 65 is emptying
     0:00:00: Reservoir 165 is emptying
   
   
  Hydraulic Status:
  -----------------------------------------------------------------------
     0:00:00: Balanced after 6 trials
     0:00:00: Reservoir 10 is emptying
     0:00:00: Reservoir 65 is emptying
     0:00:00: Reservoir 165 is emptying
   
   
  Hydraulic Status:
  -----------------------------------------------------------------------
     0:00:00: Balanced after 6 trials
     0:00:00: Reservoir 10 is emptying
     0:00:00: Reservoir 65 is emptying
     0:00:00: Reservoir 165 is emptying
   
   
  Hydraulic Status:
  -----------------------------------------------------------------------
     0:00:00: Balanced after 6 trials
     0:00:00: Reservoir 10 is emptying
     0:00:00: Reservoir 65 is emptying
     0:00:00: Reservoir 165 is emptying
   
   
  Hydraulic Status:
  -----------------------------------------------------------------------
     0:00:00: Balanced after 6 trials
     0:00:00: Reservoir 10 is emptying
     0:00:00: Reservoir 65 is emptying
     0:00:00: Reservoir 165 is emptying
   
   
  Hydraulic Status:
  -----------------------------------------------------------------------
     0:00:00: Balanced after 6 trials
     0:00:00: Reservoir 10 is emptying
     0:00:00: Reservoir 65 is emptying
     0:00:00: Reservoir 165 is emptying
   
   
  Hydraulic Status:
  -----------------------------------------------------------------------
     0:00:00: Balanced after 7 trials
     0:00:00: Reservoir 10 is emptying
     0:00:00: Reservoir 65 is emptying
     0:00:00: Reservoir 165 is emptying
   
   
  Hydraulic Status:
  -----------------------------------------------------------------------
     0:00:00: Balanced after 6 trials
     0:00:00: Reservoir 10 is emptying
     0:00:00: Reservoir 65 is emptying
     0:00:00: Reservoir 165 is emptying
   
   
  Hydraulic Status:
  -----------------------------------------------------------------------
     0:00:00: Balanced after 6 trials
     0:00:00: Reservoir 10 is emptying
     0:00:00: Reservoir 65 is emptying
     0:00:00: Reservoir 165 is emptying
   
   
  Hydraulic Status:
  -----------------------------------------------------------------------
     0:00:00: Balanced after 6 trials
     0:00:00: Reservoir 10 is emptying
     0:00:00: Reservoir 65 is emptying
     0:00:00: Reservoir 165 is emptying
   
   
  Hydraulic Status:
  -----------------------------------------------------------------------
     0:00:00: Balanced after 6 trials
     0:00:00: Reservoir 10 is emptying
     0:00:00: Reservoir 65 is filling
     0:00:00: Reservoir 165 is emptying
   
   
  Hydraulic Status:
  -----------------------------------------------------------------------
     0:00:00: Balanced after 6 trials
     0:00:00: Reservoir 10 is emptying
     0:00:00: Reservoir 65 is emptying
     0:00:00: Reservoir 165 is emptying
   
   
  Hydraulic Status:
  -----------------------------------------------------------------------
     0:00:00: Balanced after 6 trials
     0:00:00: Reservoir 10 is emptying
     0:00:00: Reservoir 65 is emptying
     0:00:00: Reservoir 165 is emptying
   
   
  Hydraulic Status:
  -----------------------------------------------------------------------
     0:00:00: Balanced after 6 trials
     0:00:00: Reservoir 10 is emptying
     0:00:00: Reservoir 65 is emptying
     0:00:00: Reservoir 165 is emptying
   
   
  Hydraulic Status:
  -----------------------------------------------------------------------
     0:00:00: Balanced after 6 trials
     0:00:00: Reservoir 10 is emptying
     0:00:00: Reservoir 65 is emptying
     0:00:00: Reservoir 165 is emptying
   
   
  Hydraulic Status:
  -----------------------------------------------------------------------
     0:00:00: Balanced after 6 trials
     0:00:00: Reservoir 10 is emptying
     0:00:00: Reservoir 65 is emptying
     0:00:00: Reservoir 165 is emptying
   
   
  Hydraulic Status:
  -----------------------------------------------------------------------
     0:00:00: Balanced after 6 trials
     0:00:00: Reservoir 10 is emptying
     0:00:00: Reservoir 65 is emptying
     0:00:00: Reservoir 165 is emptying
   
   
  Hydraulic Status:
  -----------------------------------------------------------------------
     0:00:00: Balanced after 6 trials
     0:00:00: Reservoir 10 is emptying
     0:00:00: Reservoir 65 is emptying
     0:00:00: Reservoir 165 is emptying
   
   
  Hydraulic Status:
  -----------------------------------------------------------------------
     0:00:00: Balanced after 6 trials
     0:00:00: Reservoir 10 is emptying
     0:00:00: Reservoir 65 is emptying
     0:00:00: Reservoir 165 is emptying
   
   
  Hydraulic Status:
  -----------------------------------------------------------------------
     0:00:00: Balanced after 6 trials
     0:00:00: Reservoir 10 is emptying
     0:00:00: Reservoir 65 is emptying
     0:00:00: Reservoir 165 is emptying
   
   
  Hydraulic Status:
  -----------------------------------------------------------------------
     0:00:00: Balanced after 6 trials
     0:00:00: Reservoir 10 is emptying
     0:00:00: Reservoir 65 is emptying
     0:00:00: Reservoir 165 is emptying
   
   
  Hydraulic Status:
  -----------------------------------------------------------------------
     0:00:00: Balanced after 6 trials
     0:00:00: Reservoir 10 is emptying
     0:00:00: Reservoir 65 is emptying
     0:00:00: Reservoir 165 is emptying
   
   
  Hydraulic Status:
  -----------------------------------------------------------------------
     0:00:00: Balanced after 6 trials
     0:00:00: Reservoir 10 is emptying
     0:00:00: Reservoir 65 is emptying
     0:00:00: Reservoir 165 is emptying
   
   
  Hydraulic Status:
  -----------------------------------------------------------------------
     0:00:00: Balanced after 6 trials
     0:00:00: Reservoir 10 is emptying
     0:00:00: Reservoir 65 is emptying
     0:00:00: Reservoir 165 is emptying
   
   
  Hydraulic Status:
  -----------------------------------------------------------------------
     0:00:00: Balanced after 6 trials
     0:00:00: Reservoir 10 is emptying
     0:00:00: Reservoir 65 is emptying
     0:00:00: Reservoir 165 is emptying
   
   
  Hydraulic Status:
  -----------------------------------------------------------------------
     0:00:00: Balanced after 6 trials
     0:00:00: Reservoir 10 is emptying
     0:00:00: Reservoir 65 is emptying
     0:00:00: Reservoir 165 is emptying
   
   
  Hydraulic Status:
  -----------------------------------------------------------------------
     0:00:00: Balanced after 6 trials
     0:00:00: Reservoir 10 is emptying
     0:00:00: Reservoir 65 is emptying
     0:00:00: Reservoir 165 is emptying
   
   
  Hydraulic Status:
  -----------------------------------------------------------------------
     0:00:00: Balanced after 6 trials
     0:00:00: Reservoir 10 is emptying
     0:00:00: Reservoir 65 is emptying
     0:00:00: Reservoir 165 is emptying
   
   
  Hydraulic Status:
  -----------------------------------------------------------------------
     0:00:00: Balanced after 6 trials
     0:00:00: Reservoir 10 is emptying
     0:00:00: Reservoir 65 is emptying
     0:00:00: Reservoir 165 is emptying
   
   
  Hydraulic Status:
  -----------------------------------------------------------------------
     0:00:00: Balanced after 6 trials
     0:00:00: Reservoir 10 is emptying
     0:00:00: Reservoir 65 is emptying
     0:00:00: Reservoir 165 is emptying
   
   
  Hydraulic Status:
  -----------------------------------------------------------------------
     0:00:00: Balanced after 6 trials
     0:00:00: Reservoir 10 is emptying
     0:00:00: Reservoir 65 is emptying
     0:00:00: Reservoir 165 is emptying
   
   
  Hydraulic Status:
  -----------------------------------------------------------------------
     0:00:00: Balanced after 6 trials
     0:00:00: Reservoir 10 is emptying
     0:00:00: Reservoir 65 is emptying
     0:00:00: Reservoir 165 is emptying
   
   
  Hydraulic Status:
  -----------------------------------------------------------------------
     0:00:00: Balanced after 6 trials
     0:00:00: Reservoir 10 is emptying
     0:00:00: Reservoir 65 is emptying
     0:00:00: Reservoir 165 is emptying
   
   
  Hydraulic Status:
  -----------------------------------------------------------------------
     0:00:00: Balanced after 6 trials
     0:00:00: Reservoir 10 is emptying
     0:00:00: Reservoir 65 is emptying
     0:00:00: Reservoir 165 is emptying
   
   
  Hydraulic Status:
  -----------------------------------------------------------------------
     0:00:00: Balanced after 6 trials
     0:00:00: Reservoir 10 is emptying
     0:00:00: Reservoir 65 is emptying
     0:00:00: Reservoir 165 is emptying
   
   
  Hydraulic Status:
  -----------------------------------------------------------------------
     0:00:00: Balanced after 6 trials
     0:00:00: Reservoir 10 is emptying
     0:00:00: Reservoir 65 is emptying
     0:00:00: Reservoir 165 is emptying
   
   
  Hydraulic Status:
  -----------------------------------------------------------------------
     0:00:00: Balanced after 6 trials
     0:00:00: Reservoir 10 is emptying
     0:00:00: Reservoir 65 is emptying
     0:00:00: Reservoir 165 is emptying
   
   
  Hydraulic Status:
  -----------------------------------------------------------------------
     0:00:00: Balanced after 6 trials
     0:00:00: Reservoir 10 is emptying
     0:00:00: Reservoir 65 is emptying
     0:00:00: Reservoir 165 is emptying
   
   
  Hydraulic Status:
  -----------------------------------------------------------------------
     0:00:00: Balanced after 6 trials
     0:00:00: Reservoir 10 is emptying
     0:00:00: Reservoir 65 is emptying
     0:00:00: Reservoir 165 is emptying
   
   
  Hydraulic Status:
  -----------------------------------------------------------------------
     0:00:00: Balanced after 6 trials
     0:00:00: Reservoir 10 is emptying
     0:00:00: Reservoir 65 is emptying
     0:00:00: Reservoir 165 is emptying
   
   
  Hydraulic Status:
  -----------------------------------------------------------------------
     0:00:00: Balanced after 6 trials
     0:00:00: Reservoir 10 is emptying
     0:00:00: Reservoir 65 is emptying
     0:00:00: Reservoir 165 is emptying
   
   
  Hydraulic Status:
  -----------------------------------------------------------------------
     0:00:00: Balanced after 6 trials
     0:00:00: Reservoir 10 is emptying
     0:00:00: Reservoir 65 is emptying
     0:00:00: Reservoir 165 is emptying
   
   
  Hydraulic Status:
  -----------------------------------------------------------------------
     0:00:00: Balanced after 6 trials
     0:00:00: Reservoir 10 is emptying
     0:00:00: Reservoir 65 is emptying
     0:00:00: Reservoir 165 is emptying
   
   
  Hydraulic Status:
  -----------------------------------------------------------------------
     0:00:00: Balanced after 6 trials
     0:00:00: Reservoir 10 is emptying
     0:00:00: Reservoir 65 is emptying
     0:00:00: Reservoir 165 is emptying
   
   
  Hydraulic Status:
  -----------------------------------------------------------------------
     0:00:00: Balanced after 6 trials
     0:00:00: Reservoir 10 is emptying
     0:00:00: Reservoir 65 is emptying
     0:00:00: Reservoir 165 is emptying
   
   
  Hydraulic Status:
  -----------------------------------------------------------------------
     0:00:00: Balanced after 6 trials
     0:00:00: Reservoir 10 is emptying
     0:00:00: Reservoir 65 is emptying
     0:00:00: Reservoir 165 is emptying
   
   
  Hydraulic Status:
  -----------------------------------------------------------------------
     0:00:00: Balanced after 6 trials
     0:00:00: Reservoir 10 is emptying
     0:00:00: Reservoir 65 is emptying
     0:00:00: Reservoir 165 is emptying
   
   
  Hydraulic Status:
  -----------------------------------------------------------------------
     0:00:00: Balanced after 6 trials
     0:00:00: Reservoir 10 is emptying
     0:00:00: Reservoir 65 is emptying
     0:00:00: Reservoir 165 is emptying
   
   
  Hydraulic Status:
  -----------------------------------------------------------------------
     0:00:00: Balanced after 6 trials
     0:00:00: Reservoir 10 is emptying
     0:00:00: Reservoir 65 is emptying
     0:00:00: Reservoir 165 is emptying
   
   
  Hydraulic Status:
  -----------------------------------------------------------------------
     0:00:00: Balanced after 6 trials
     0:00:00: Reservoir 10 is emptying
     0:00:00: Reservoir 65 is emptying
     0:00:00: Reservoir 165 is emptying
   
   
  Hydraulic Status:
  -----------------------------------------------------------------------
     0:00:00: Balanced after 6 trials
     0:00:00: Reservoir 10 is emptying
     0:00:00: Reservoir 65 is emptying
     0:00:00: Reservoir 165 is emptying
   
   
  Hydraulic Status:
  -----------------------------------------------------------------------
     0:00:00: Balanced after 6 trials
     0:00:00: Reservoir 10 is emptying
     0:00:00: Reservoir 65 is filling
     0:00:00: Reservoir 165 is emptying
   
   
  Hydraulic Status:
  -----------------------------------------------------------------------
     0:00:00: Balanced after 7 trials
     0:00:00: Reservoir 10 is emptying
     0:00:00: Reservoir 65 is emptying
     0:00:00: Reservoir 165 is emptying
   
   
  Hydraulic Status:
  -----------------------------------------------------------------------
     0:00:00: Balanced after 6 trials
     0:00:00: Reservoir 10 is emptying
     0:00:00: Reservoir 65 is emptying
     0:00:00: Reservoir 165 is emptying
   
   
  Hydraulic Status:
  -----------------------------------------------------------------------
     0:00:00: Balanced after 6 trials
     0:00:00: Reservoir 10 is emptying
     0:00:00: Reservoir 65 is emptying
     0:00:00: Reservoir 165 is emptying
   
   
  Hydraulic Status:
  -----------------------------------------------------------------------
     0:00:00: Balanced after 6 trials
     0:00:00: Reservoir 10 is emptying
     0:00:00: Reservoir 65 is emptying
     0:00:00: Reservoir 165 is emptying
   
   
  Hydraulic Status:
  -----------------------------------------------------------------------
     0:00:00: Balanced after 6 trials
     0:00:00: Reservoir 10 is emptying
     0:00:00: Reservoir 65 is emptying
     0:00:00: Reservoir 165 is emptying
   
   
  Hydraulic Status:
  -----------------------------------------------------------------------
     0:00:00: Balanced after 6 trials
     0:00:00: Reservoir 10 is emptying
     0:00:00: Reservoir 65 is emptying
     0:00:00: Reservoir 165 is emptying
   
   
  Hydraulic Status:
  -----------------------------------------------------------------------
     0:00:00: Balanced after 6 trials
     0:00:00: Reservoir 10 is emptying
     0:00:00: Reservoir 65 is emptying
     0:00:00: Reservoir 165 is emptying
   
   
  Hydraulic Status:
  -----------------------------------------------------------------------
     0:00:00: Balanced after 6 trials
     0:00:00: Reservoir 10 is emptying
     0:00:00: Reservoir 65 is emptying
     0:00:00: Reservoir 165 is emptying
   
   
  Hydraulic Status:
  -----------------------------------------------------------------------
     0:00:00: Balanced after 6 trials
     0:00:00: Reservoir 10 is emptying
     0:00:00: Reservoir 65 is emptying
     0:00:00: Reservoir 165 is emptying
   
   
  Hydraulic Status:
  -----------------------------------------------------------------------
     0:00:00: Balanced after 6 trials
     0:00:00: Reservoir 10 is emptying
     0:00:00: Reservoir 65 is emptying
     0:00:00: Reservoir 165 is emptying
   
   
  Hydraulic Status:
  -----------------------------------------------------------------------
     0:00:00: Balanced after 6 trials
     0:00:00: Reservoir 10 is emptying
     0:00:00: Reservoir 65 is emptying
     0:00:00: Reservoir 165 is emptying
   
   
  Hydraulic Status:
  -----------------------------------------------------------------------
     0:00:00: Balanced after 6 trials
     0:00:00: Reservoir 10 is emptying
     0:00:00: Reservoir 65 is emptying
     0:00:00: Reservoir 165 is emptying
   
   
  Hydraulic Status:
  -----------------------------------------------------------------------
     0:00:00: Balanced after 6 trials
     0:00:00: Reservoir 10 is emptying
     0:00:00: Reservoir 65 is emptying
     0:00:00: Reservoir 165 is emptying
   
   
  Hydraulic Status:
  -----------------------------------------------------------------------
     0:00:00: Balanced after 6 trials
     0:00:00: Reservoir 10 is emptying
     0:00:00: Reservoir 65 is emptying
     0:00:00: Reservoir 165 is emptying
   
   
  Hydraulic Status:
  -----------------------------------------------------------------------
     0:00:00: Balanced after 6 trials
     0:00:00: Reservoir 10 is emptying
     0:00:00: Reservoir 65 is filling
     0:00:00: Reservoir 165 is emptying
   
   
  Hydraulic Status:
  -----------------------------------------------------------------------
     0:00:00: Balanced after 5 trials
     0:00:00: Reservoir 10 is emptying
     0:00:00: Reservoir 65 is emptying
     0:00:00: Reservoir 165 is emptying
   
   
  Hydraulic Status:
  -----------------------------------------------------------------------
     0:00:00: Balanced after 6 trials
     0:00:00: Reservoir 10 is emptying
     0:00:00: Reservoir 65 is emptying
     0:00:00: Reservoir 165 is emptying
   
   
  Hydraulic Status:
  -----------------------------------------------------------------------
     0:00:00: Balanced after 6 trials
     0:00:00: Reservoir 10 is emptying
     0:00:00: Reservoir 65 is emptying
     0:00:00: Reservoir 165 is emptying
   
   
  Hydraulic Status:
  -----------------------------------------------------------------------
     0:00:00: Balanced after 6 trials
     0:00:00: Reservoir 10 is emptying
     0:00:00: Reservoir 65 is emptying
     0:00:00: Reservoir 165 is emptying
   
   
  Hydraulic Status:
  -----------------------------------------------------------------------
     0:00:00: Balanced after 7 trials
     0:00:00: Reservoir 10 is emptying
     0:00:00: Reservoir 65 is emptying
     0:00:00: Reservoir 165 is emptying
   
   
  Hydraulic Status:
  -----------------------------------------------------------------------
     0:00:00: Balanced after 6 trials
     0:00:00: Reservoir 10 is emptying
     0:00:00: Reservoir 65 is emptying
     0:00:00: Reservoir 165 is emptying
   
   
  Hydraulic Status:
  -----------------------------------------------------------------------
     0:00:00: Balanced after 6 trials
     0:00:00: Reservoir 10 is emptying
     0:00:00: Reservoir 65 is emptying
     0:00:00: Reservoir 165 is emptying
   
   
  Hydraulic Status:
  -----------------------------------------------------------------------
     0:00:00: Balanced after 6 trials
     0:00:00: Reservoir 10 is emptying
     0:00:00: Reservoir 65 is emptying
     0:00:00: Reservoir 165 is emptying
   
   
  Hydraulic Status:
  -----------------------------------------------------------------------
     0:00:00: Balanced after 6 trials
     0:00:00: Reservoir 10 is emptying
     0:00:00: Reservoir 65 is emptying
     0:00:00: Reservoir 165 is emptying
   
   
  Hydraulic Status:
  -----------------------------------------------------------------------
     0:00:00: Balanced after 6 trials
     0:00:00: Reservoir 10 is emptying
     0:00:00: Reservoir 65 is emptying
     0:00:00: Reservoir 165 is emptying
   
   
  Hydraulic Status:
  -----------------------------------------------------------------------
     0:00:00: Balanced after 6 trials
     0:00:00: Reservoir 10 is emptying
     0:00:00: Reservoir 65 is emptying
     0:00:00: Reservoir 165 is emptying
   
   
  Hydraulic Status:
  -----------------------------------------------------------------------
     0:00:00: Balanced after 6 trials
     0:00:00: Reservoir 10 is emptying
     0:00:00: Reservoir 65 is emptying
     0:00:00: Reservoir 165 is emptying
   
   
  Hydraulic Status:
  -----------------------------------------------------------------------
     0:00:00: Balanced after 7 trials
     0:00:00: Reservoir 10 is emptying
     0:00:00: Reservoir 65 is emptying
     0:00:00: Reservoir 165 is emptying
   
   
  Hydraulic Status:
  -----------------------------------------------------------------------
     0:00:00: Balanced after 6 trials
     0:00:00: Reservoir 10 is emptying
     0:00:00: Reservoir 65 is emptying
     0:00:00: Reservoir 165 is emptying
   
   
  Hydraulic Status:
  -----------------------------------------------------------------------
     0:00:00: Balanced after 6 trials
     0:00:00: Reservoir 10 is emptying
     0:00:00: Reservoir 65 is emptying
     0:00:00: Reservoir 165 is emptying
   
   
  Hydraulic Status:
  -----------------------------------------------------------------------
     0:00:00: Balanced after 6 trials
     0:00:00: Reservoir 10 is emptying
     0:00:00: Reservoir 65 is emptying
     0:00:00: Reservoir 165 is emptying
   
   
  Hydraulic Status:
  -----------------------------------------------------------------------
     0:00:00: Balanced after 6 trials
     0:00:00: Reservoir 10 is emptying
     0:00:00: Reservoir 65 is emptying
     0:00:00: Reservoir 165 is emptying
   
   
  Hydraulic Status:
  -----------------------------------------------------------------------
     0:00:00: Balanced after 6 trials
     0:00:00: Reservoir 10 is emptying
     0:00:00: Reservoir 65 is emptying
     0:00:00: Reservoir 165 is emptying
   
   
  Hydraulic Status:
  -----------------------------------------------------------------------
     0:00:00: Balanced after 6 trials
     0:00:00: Reservoir 10 is emptying
     0:00:00: Reservoir 65 is emptying
     0:00:00: Reservoir 165 is emptying
   
   
  Hydraulic Status:
  -----------------------------------------------------------------------
     0:00:00: Balanced after 6 trials
     0:00:00: Reservoir 10 is emptying
     0:00:00: Reservoir 65 is emptying
     0:00:00: Reservoir 165 is emptying
   
   
  Hydraulic Status:
  -----------------------------------------------------------------------
     0:00:00: Balanced after 6 trials
     0:00:00: Reservoir 10 is emptying
     0:00:00: Reservoir 65 is emptying
     0:00:00: Reservoir 165 is emptying
   
   
  Hydraulic Status:
  -----------------------------------------------------------------------
     0:00:00: Balanced after 6 trials
     0:00:00: Reservoir 10 is emptying
     0:00:00: Reservoir 65 is emptying
     0:00:00: Reservoir 165 is emptying
   
   
  Hydraulic Status:
  -----------------------------------------------------------------------
     0:00:00: Balanced after 6 trials
     0:00:00: Reservoir 10 is emptying
     0:00:00: Reservoir 65 is emptying
     0:00:00: Reservoir 165 is emptying
   
   
  Hydraulic Status:
  -----------------------------------------------------------------------
     0:00:00: Balanced after 6 trials
     0:00:00: Reservoir 10 is emptying
     0:00:00: Reservoir 65 is filling
     0:00:00: Reservoir 165 is emptying
   
   
  Hydraulic Status:
  -----------------------------------------------------------------------
     0:00:00: Balanced after 6 trials
     0:00:00: Reservoir 10 is emptying
     0:00:00: Reservoir 65 is emptying
     0:00:00: Reservoir 165 is emptying
   
   
  Hydraulic Status:
  -----------------------------------------------------------------------
     0:00:00: Balanced after 6 trials
     0:00:00: Reservoir 10 is emptying
     0:00:00: Reservoir 65 is emptying
     0:00:00: Reservoir 165 is emptying
   
   
  Hydraulic Status:
  -----------------------------------------------------------------------
     0:00:00: Balanced after 6 trials
     0:00:00: Reservoir 10 is emptying
     0:00:00: Reservoir 65 is emptying
     0:00:00: Reservoir 165 is emptying
   
   
  Hydraulic Status:
  -----------------------------------------------------------------------
     0:00:00: Balanced after 6 trials
     0:00:00: Reservoir 10 is emptying
     0:00:00: Reservoir 65 is emptying
     0:00:00: Reservoir 165 is emptying
   
   
  Hydraulic Status:
  -----------------------------------------------------------------------
     0:00:00: Balanced after 6 trials
     0:00:00: Reservoir 10 is emptying
     0:00:00: Reservoir 65 is emptying
     0:00:00: Reservoir 165 is emptying
   
   
  Hydraulic Status:
  -----------------------------------------------------------------------
     0:00:00: Balanced after 6 trials
     0:00:00: Reservoir 10 is emptying
     0:00:00: Reservoir 65 is emptying
     0:00:00: Reservoir 165 is emptying
   
   
  Hydraulic Status:
  -----------------------------------------------------------------------
     0:00:00: Balanced after 6 trials
     0:00:00: Reservoir 10 is emptying
     0:00:00: Reservoir 65 is emptying
     0:00:00: Reservoir 165 is emptying
   
   
  Hydraulic Status:
  -----------------------------------------------------------------------
     0:00:00: Balanced after 6 trials
     0:00:00: Reservoir 10 is emptying
     0:00:00: Reservoir 65 is emptying
     0:00:00: Reservoir 165 is emptying
   
   
  Hydraulic Status:
  -----------------------------------------------------------------------
     0:00:00: Balanced after 6 trials
     0:00:00: Reservoir 10 is emptying
     0:00:00: Reservoir 65 is emptying
     0:00:00: Reservoir 165 is emptying
   
   
  Hydraulic Status:
  -----------------------------------------------------------------------
     0:00:00: Balanced after 6 trials
     0:00:00: Reservoir 10 is emptying
     0:00:00: Reservoir 65 is emptying
     0:00:00: Reservoir 165 is emptying
   
   
  Hydraulic Status:
  -----------------------------------------------------------------------
     0:00:00: Balanced after 6 trials
     0:00:00: Reservoir 10 is emptying
     0:00:00: Reservoir 65 is emptying
     0:00:00: Reservoir 165 is emptying
   
   
  Hydraulic Status:
  -----------------------------------------------------------------------
     0:00:00: Balanced after 6 trials
     0:00:00: Reservoir 10 is emptying
     0:00:00: Reservoir 65 is filling
     0:00:00: Reservoir 165 is emptying
   
   
  Hydraulic Status:
  -----------------------------------------------------------------------
     0:00:00: Balanced after 6 trials
     0:00:00: Reservoir 10 is emptying
     0:00:00: Reservoir 65 is emptying
     0:00:00: Reservoir 165 is emptying
   
   
  Hydraulic Status:
  -----------------------------------------------------------------------
     0:00:00: Balanced after 6 trials
     0:00:00: Reservoir 10 is emptying
     0:00:00: Reservoir 65 is emptying
     0:00:00: Reservoir 165 is emptying
   
   
  Hydraulic Status:
  -----------------------------------------------------------------------
     0:00:00: Balanced after 6 trials
     0:00:00: Reservoir 10 is emptying
     0:00:00: Reservoir 65 is emptying
     0:00:00: Reservoir 165 is emptying
   
   
  Hydraulic Status:
  -----------------------------------------------------------------------
     0:00:00: Balanced after 6 trials
     0:00:00: Reservoir 10 is emptying
     0:00:00: Reservoir 65 is emptying
     0:00:00: Reservoir 165 is emptying
   
   
  Hydraulic Status:
  -----------------------------------------------------------------------
     0:00:00: Balanced after 7 trials
     0:00:00: Reservoir 10 is emptying
     0:00:00: Reservoir 65 is filling
     0:00:00: Reservoir 165 is emptying
   
   
  Hydraulic Status:
  -----------------------------------------------------------------------
     0:00:00: Balanced after 6 trials
     0:00:00: Reservoir 10 is emptying
     0:00:00: Reservoir 65 is emptying
     0:00:00: Reservoir 165 is emptying
   
   
  Hydraulic Status:
  -----------------------------------------------------------------------
     0:00:00: Balanced after 6 trials
     0:00:00: Reservoir 10 is emptying
     0:00:00: Reservoir 65 is emptying
     0:00:00: Reservoir 165 is emptying
   
   
  Hydraulic Status:
  -----------------------------------------------------------------------
     0:00:00: Balanced after 6 trials
     0:00:00: Reservoir 10 is emptying
     0:00:00: Reservoir 65 is emptying
     0:00:00: Reservoir 165 is emptying
   
   
  Hydraulic Status:
  -----------------------------------------------------------------------
     0:00:00: Balanced after 6 trials
     0:00:00: Reservoir 10 is emptying
     0:00:00: Reservoir 65 is emptying
     0:00:00: Reservoir 165 is emptying
   
   
  Hydraulic Status:
  -----------------------------------------------------------------------
     0:00:00: Balanced after 6 trials
     0:00:00: Reservoir 10 is emptying
     0:00:00: Reservoir 65 is emptying
     0:00:00: Reservoir 165 is emptying
   
   
  Hydraulic Status:
  -----------------------------------------------------------------------
     0:00:00: Balanced after 6 trials
     0:00:00: Reservoir 10 is emptying
     0:00:00: Reservoir 65 is emptying
     0:00:00: Reservoir 165 is emptying
   
   
  Hydraulic Status:
  -----------------------------------------------------------------------
     0:00:00: Balanced after 6 trials
     0:00:00: Reservoir 10 is emptying
     0:00:00: Reservoir 65 is emptying
     0:00:00: Reservoir 165 is emptying
   
   
  Hydraulic Status:
  -----------------------------------------------------------------------
     0:00:00: Balanced after 6 trials
     0:00:00: Reservoir 10 is emptying
     0:00:00: Reservoir 65 is emptying
     0:00:00: Reservoir 165 is emptying
   
   
  Hydraulic Status:
  -----------------------------------------------------------------------
     0:00:00: Balanced after 5 trials
     0:00:00: Reservoir 10 is emptying
     0:00:00: Reservoir 65 is emptying
     0:00:00: Reservoir 165 is emptying
   
   
  Hydraulic Status:
  -----------------------------------------------------------------------
     0:00:00: Balanced after 6 trials
     0:00:00: Reservoir 10 is emptying
     0:00:00: Reservoir 65 is emptying
     0:00:00: Reservoir 165 is emptying
   
   
  Hydraulic Status:
  -----------------------------------------------------------------------
     0:00:00: Balanced after 6 trials
     0:00:00: Reservoir 10 is emptying
     0:00:00: Reservoir 65 is emptying
     0:00:00: Reservoir 165 is emptying
   
   
  Hydraulic Status:
  -----------------------------------------------------------------------
     0:00:00: Balanced after 6 trials
     0:00:00: Reservoir 10 is emptying
     0:00:00: Reservoir 65 is emptying
     0:00:00: Reservoir 165 is emptying
   
   
  Hydraulic Status:
  -----------------------------------------------------------------------
     0:00:00: Balanced after 6 trials
     0:00:00: Reservoir 10 is emptying
     0:00:00: Reservoir 65 is filling
     0:00:00: Reservoir 165 is emptying
   
   
  Hydraulic Status:
  -----------------------------------------------------------------------
     0:00:00: Balanced after 6 trials
     0:00:00: Reservoir 10 is emptying
     0:00:00: Reservoir 65 is emptying
     0:00:00: Reservoir 165 is emptying
   
   
  Hydraulic Status:
  -----------------------------------------------------------------------
     0:00:00: Balanced after 6 trials
     0:00:00: Reservoir 10 is emptying
     0:00:00: Reservoir 65 is emptying
     0:00:00: Reservoir 165 is emptying
   
   
  Hydraulic Status:
  -----------------------------------------------------------------------
     0:00:00: Balanced after 6 trials
     0:00:00: Reservoir 10 is emptying
     0:00:00: Reservoir 65 is emptying
     0:00:00: Reservoir 165 is emptying
   
   
  Hydraulic Status:
  -----------------------------------------------------------------------
     0:00:00: Balanced after 6 trials
     0:00:00: Reservoir 10 is emptying
     0:00:00: Reservoir 65 is emptying
     0:00:00: Reservoir 165 is emptying
   
   
  Hydraulic Status:
  -----------------------------------------------------------------------
     0:00:00: Balanced after 6 trials
     0:00:00: Reservoir 10 is emptying
     0:00:00: Reservoir 65 is emptying
     0:00:00: Reservoir 165 is emptying
   
   
  Hydraulic Status:
  -----------------------------------------------------------------------
     0:00:00: Balanced after 6 trials
     0:00:00: Reservoir 10 is emptying
     0:00:00: Reservoir 65 is emptying
     0:00:00: Reservoir 165 is emptying
   
   
  Hydraulic Status:
  -----------------------------------------------------------------------
     0:00:00: Balanced after 6 trials
     0:00:00: Reservoir 10 is emptying
     0:00:00: Reservoir 65 is emptying
     0:00:00: Reservoir 165 is emptying
   
   
  Hydraulic Status:
  -----------------------------------------------------------------------
     0:00:00: Balanced after 6 trials
     0:00:00: Reservoir 10 is emptying
     0:00:00: Reservoir 65 is emptying
     0:00:00: Reservoir 165 is emptying
   
   
  Hydraulic Status:
  -----------------------------------------------------------------------
     0:00:00: Balanced after 6 trials
     0:00:00: Reservoir 10 is emptying
     0:00:00: Reservoir 65 is emptying
     0:00:00: Reservoir 165 is emptying
   
   
  Hydraulic Status:
  -----------------------------------------------------------------------
     0:00:00: Balanced after 6 trials
     0:00:00: Reservoir 10 is emptying
     0:00:00: Reservoir 65 is emptying
     0:00:00: Reservoir 165 is emptying
   
   
  Hydraulic Status:
  -----------------------------------------------------------------------
     0:00:00: Balanced after 6 trials
     0:00:00: Reservoir 10 is emptying
     0:00:00: Reservoir 65 is emptying
     0:00:00: Reservoir 165 is emptying
   
   
  Hydraulic Status:
  -----------------------------------------------------------------------
     0:00:00: Balanced after 6 trials
     0:00:00: Reservoir 10 is emptying
     0:00:00: Reservoir 65 is emptying
     0:00:00: Reservoir 165 is emptying
   
   
  Hydraulic Status:
  -----------------------------------------------------------------------
     0:00:00: Balanced after 6 trials
     0:00:00: Reservoir 10 is emptying
     0:00:00: Reservoir 65 is emptying
     0:00:00: Reservoir 165 is emptying
   
   
  Hydraulic Status:
  -----------------------------------------------------------------------
     0:00:00: Balanced after 6 trials
     0:00:00: Reservoir 10 is emptying
     0:00:00: Reservoir 65 is emptying
     0:00:00: Reservoir 165 is emptying
   
   
  Hydraulic Status:
  -----------------------------------------------------------------------
     0:00:00: Balanced after 6 trials
     0:00:00: Reservoir 10 is emptying
     0:00:00: Reservoir 65 is emptying
     0:00:00: Reservoir 165 is emptying
   
   
  Hydraulic Status:
  -----------------------------------------------------------------------
     0:00:00: Balanced after 6 trials
     0:00:00: Reservoir 10 is emptying
     0:00:00: Reservoir 65 is emptying
     0:00:00: Reservoir 165 is emptying
   
   
  Hydraulic Status:
  -----------------------------------------------------------------------
     0:00:00: Balanced after 6 trials
     0:00:00: Reservoir 10 is emptying
     0:00:00: Reservoir 65 is emptying
     0:00:00: Reservoir 165 is emptying
   
   
  Hydraulic Status:
  -----------------------------------------------------------------------
     0:00:00: Balanced after 6 trials
     0:00:00: Reservoir 10 is emptying
     0:00:00: Reservoir 65 is emptying
     0:00:00: Reservoir 165 is emptying
   
   
  Hydraulic Status:
  -----------------------------------------------------------------------
     0:00:00: Balanced after 6 trials
     0:00:00: Reservoir 10 is emptying
     0:00:00: Reservoir 65 is filling
     0:00:00: Reservoir 165 is emptying
   
   
  Hydraulic Status:
  -----------------------------------------------------------------------
     0:00:00: Balanced after 6 trials
     0:00:00: Reservoir 10 is emptying
     0:00:00: Reservoir 65 is emptying
     0:00:00: Reservoir 165 is emptying
   
   
  Hydraulic Status:
  -----------------------------------------------------------------------
     0:00:00: Balanced after 6 trials
     0:00:00: Reservoir 10 is emptying
     0:00:00: Reservoir 65 is emptying
     0:00:00: Reservoir 165 is emptying
   
   
  Hydraulic Status:
  -----------------------------------------------------------------------
     0:00:00: Balanced after 6 trials
     0:00:00: Reservoir 10 is emptying
     0:00:00: Reservoir 65 is emptying
     0:00:00: Reservoir 165 is emptying
   
   
  Hydraulic Status:
  -----------------------------------------------------------------------
     0:00:00: Balanced after 6 trials
     0:00:00: Reservoir 10 is emptying
     0:00:00: Reservoir 65 is emptying
     0:00:00: Reservoir 165 is emptying
   
   
  Hydraulic Status:
  -----------------------------------------------------------------------
     0:00:00: Balanced after 6 trials
     0:00:00: Reservoir 10 is emptying
     0:00:00: Reservoir 65 is emptying
     0:00:00: Reservoir 165 is emptying
   
   
  Hydraulic Status:
  -----------------------------------------------------------------------
     0:00:00: Balanced after 6 trials
     0:00:00: Reservoir 10 is emptying
     0:00:00: Reservoir 65 is filling
     0:00:00: Reservoir 165 is emptying
   
   
  Hydraulic Status:
  -----------------------------------------------------------------------
     0:00:00: Balanced after 6 trials
     0:00:00: Reservoir 10 is emptying
     0:00:00: Reservoir 65 is emptying
     0:00:00: Reservoir 165 is emptying
   
   
  Hydraulic Status:
  -----------------------------------------------------------------------
     0:00:00: Balanced after 6 trials
     0:00:00: Reservoir 10 is emptying
     0:00:00: Reservoir 65 is emptying
     0:00:00: Reservoir 165 is emptying
   
   
  Hydraulic Status:
  -----------------------------------------------------------------------
     0:00:00: Balanced after 6 trials
     0:00:00: Reservoir 10 is emptying
     0:00:00: Reservoir 65 is emptying
     0:00:00: Reservoir 165 is emptying
   
   
  Hydraulic Status:
  -----------------------------------------------------------------------
     0:00:00: Balanced after 6 trials
     0:00:00: Reservoir 10 is emptying
     0:00:00: Reservoir 65 is emptying
     0:00:00: Reservoir 165 is emptying
   
   
  Hydraulic Status:
  -----------------------------------------------------------------------
     0:00:00: Balanced after 6 trials
     0:00:00: Reservoir 10 is emptying
     0:00:00: Reservoir 65 is emptying
     0:00:00: Reservoir 165 is emptying
   
   
  Hydraulic Status:
  -----------------------------------------------------------------------
     0:00:00: Balanced after 6 trials
     0:00:00: Reservoir 10 is emptying
     0:00:00: Reservoir 65 is emptying
     0:00:00: Reservoir 165 is emptying
   
   
  Hydraulic Status:
  -----------------------------------------------------------------------
     0:00:00: Balanced after 6 trials
     0:00:00: Reservoir 10 is emptying
     0:00:00: Reservoir 65 is emptying
     0:00:00: Reservoir 165 is emptying
   
   
  Hydraulic Status:
  -----------------------------------------------------------------------
     0:00:00: Balanced after 6 trials
     0:00:00: Reservoir 10 is emptying
     0:00:00: Reservoir 65 is emptying
     0:00:00: Reservoir 165 is emptying
   
   
  Hydraulic Status:
  -----------------------------------------------------------------------
     0:00:00: Balanced after 6 trials
     0:00:00: Reservoir 10 is emptying
     0:00:00: Reservoir 65 is emptying
     0:00:00: Reservoir 165 is emptying
   
   
  Hydraulic Status:
  -----------------------------------------------------------------------
     0:00:00: Balanced after 6 trials
     0:00:00: Reservoir 10 is emptying
     0:00:00: Reservoir 65 is emptying
     0:00:00: Reservoir 165 is emptying
   
   
  Hydraulic Status:
  -----------------------------------------------------------------------
     0:00:00: Balanced after 7 trials
     0:00:00: Reservoir 10 is emptying
     0:00:00: Reservoir 65 is emptying
     0:00:00: Reservoir 165 is emptying
   
   
  Hydraulic Status:
  -----------------------------------------------------------------------
     0:00:00: Balanced after 6 trials
     0:00:00: Reservoir 10 is emptying
     0:00:00: Reservoir 65 is emptying
     0:00:00: Reservoir 165 is emptying
   
   
  Hydraulic Status:
  -----------------------------------------------------------------------
     0:00:00: Balanced after 6 trials
     0:00:00: Reservoir 10 is emptying
     0:00:00: Reservoir 65 is emptying
     0:00:00: Reservoir 165 is emptying
   
   
  Hydraulic Status:
  -----------------------------------------------------------------------
     0:00:00: Balanced after 7 trials
     0:00:00: Reservoir 10 is emptying
     0:00:00: Reservoir 65 is emptying
     0:00:00: Reservoir 165 is emptying
   
   
  Hydraulic Status:
  -----------------------------------------------------------------------
     0:00:00: Balanced after 6 trials
     0:00:00: Reservoir 10 is emptying
     0:00:00: Reservoir 65 is emptying
     0:00:00: Reservoir 165 is emptying
   
   
  Hydraulic Status:
  -----------------------------------------------------------------------
     0:00:00: Balanced after 6 trials
     0:00:00: Reservoir 10 is emptying
     0:00:00: Reservoir 65 is emptying
     0:00:00: Reservoir 165 is emptying
   
   
  Hydraulic Status:
  -----------------------------------------------------------------------
     0:00:00: Balanced after 6 trials
     0:00:00: Reservoir 10 is emptying
     0:00:00: Reservoir 65 is emptying
     0:00:00: Reservoir 165 is emptying
   
   
  Hydraulic Status:
  -----------------------------------------------------------------------
     0:00:00: Balanced after 6 trials
     0:00:00: Reservoir 10 is emptying
     0:00:00: Reservoir 65 is filling
     0:00:00: Reservoir 165 is emptying
   
   
  Hydraulic Status:
  -----------------------------------------------------------------------
     0:00:00: Balanced after 6 trials
     0:00:00: Reservoir 10 is emptying
     0:00:00: Reservoir 65 is emptying
     0:00:00: Reservoir 165 is emptying
   
   
  Hydraulic Status:
  -----------------------------------------------------------------------
     0:00:00: Balanced after 6 trials
     0:00:00: Reservoir 10 is emptying
     0:00:00: Reservoir 65 is emptying
     0:00:00: Reservoir 165 is emptying
   
   
  Hydraulic Status:
  -----------------------------------------------------------------------
     0:00:00: Balanced after 6 trials
     0:00:00: Reservoir 10 is emptying
     0:00:00: Reservoir 65 is emptying
     0:00:00: Reservoir 165 is emptying
   
   
  Hydraulic Status:
  -----------------------------------------------------------------------
     0:00:00: Balanced after 6 trials
     0:00:00: Reservoir 10 is emptying
     0:00:00: Reservoir 65 is emptying
     0:00:00: Reservoir 165 is emptying
   
   
  Hydraulic Status:
  -----------------------------------------------------------------------
     0:00:00: Balanced after 7 trials
     0:00:00: Reservoir 10 is emptying
     0:00:00: Reservoir 65 is emptying
     0:00:00: Reservoir 165 is emptying
   
   
  Hydraulic Status:
  -----------------------------------------------------------------------
     0:00:00: Balanced after 6 trials
     0:00:00: Reservoir 10 is emptying
     0:00:00: Reservoir 65 is emptying
     0:00:00: Reservoir 165 is emptying
   
   
  Hydraulic Status:
  -----------------------------------------------------------------------
     0:00:00: Balanced after 6 trials
     0:00:00: Reservoir 10 is emptying
     0:00:00: Reservoir 65 is emptying
     0:00:00: Reservoir 165 is emptying
   
   
  Hydraulic Status:
  -----------------------------------------------------------------------
     0:00:00: Balanced after 6 trials
     0:00:00: Reservoir 10 is emptying
     0:00:00: Reservoir 65 is emptying
     0:00:00: Reservoir 165 is emptying
   
   
  Hydraulic Status:
  -----------------------------------------------------------------------
     0:00:00: Balanced after 6 trials
     0:00:00: Reservoir 10 is emptying
     0:00:00: Reservoir 65 is emptying
     0:00:00: Reservoir 165 is emptying
   
   
  Hydraulic Status:
  -----------------------------------------------------------------------
     0:00:00: Balanced after 6 trials
     0:00:00: Reservoir 10 is emptying
     0:00:00: Reservoir 65 is emptying
     0:00:00: Reservoir 165 is emptying
   
   
  Hydraulic Status:
  -----------------------------------------------------------------------
     0:00:00: Balanced after 6 trials
     0:00:00: Reservoir 10 is emptying
     0:00:00: Reservoir 65 is emptying
     0:00:00: Reservoir 165 is emptying
   
   
  Hydraulic Status:
  -----------------------------------------------------------------------
     0:00:00: Balanced after 6 trials
     0:00:00: Reservoir 10 is emptying
     0:00:00: Reservoir 65 is emptying
     0:00:00: Reservoir 165 is emptying
   
   
  Hydraulic Status:
  -----------------------------------------------------------------------
     0:00:00: Balanced after 6 trials
     0:00:00: Reservoir 10 is emptying
     0:00:00: Reservoir 65 is emptying
     0:00:00: Reservoir 165 is emptying
   
   
  Hydraulic Status:
  -----------------------------------------------------------------------
     0:00:00: Balanced after 6 trials
     0:00:00: Reservoir 10 is emptying
     0:00:00: Reservoir 65 is emptying
     0:00:00: Reservoir 165 is emptying
   
   
  Hydraulic Status:
  -----------------------------------------------------------------------
     0:00:00: Balanced after 6 trials
     0:00:00: Reservoir 10 is emptying
     0:00:00: Reservoir 65 is emptying
     0:00:00: Reservoir 165 is emptying
   
   
  Hydraulic Status:
  -----------------------------------------------------------------------
     0:00:00: Balanced after 6 trials
     0:00:00: Reservoir 10 is emptying
     0:00:00: Reservoir 65 is emptying
     0:00:00: Reservoir 165 is emptying
   
   
  Hydraulic Status:
  -----------------------------------------------------------------------
     0:00:00: Balanced after 6 trials
     0:00:00: Reservoir 10 is emptying
     0:00:00: Reservoir 65 is emptying
     0:00:00: Reservoir 165 is emptying
   
   
  Hydraulic Status:
  -----------------------------------------------------------------------
     0:00:00: Balanced after 6 trials
     0:00:00: Reservoir 10 is emptying
     0:00:00: Reservoir 65 is emptying
     0:00:00: Reservoir 165 is emptying
   
   
  Hydraulic Status:
  -----------------------------------------------------------------------
     0:00:00: Balanced after 6 trials
     0:00:00: Reservoir 10 is emptying
     0:00:00: Reservoir 65 is emptying
     0:00:00: Reservoir 165 is emptying
   
   
  Hydraulic Status:
  -----------------------------------------------------------------------
     0:00:00: Balanced after 6 trials
     0:00:00: Reservoir 10 is emptying
     0:00:00: Reservoir 65 is emptying
     0:00:00: Reservoir 165 is emptying
   
   
  Hydraulic Status:
  -----------------------------------------------------------------------
     0:00:00: Balanced after 7 trials
     0:00:00: Reservoir 10 is emptying
     0:00:00: Reservoir 65 is emptying
     0:00:00: Reservoir 165 is emptying
   
   
  Hydraulic Status:
  -----------------------------------------------------------------------
     0:00:00: Balanced after 6 trials
     0:00:00: Reservoir 10 is emptying
     0:00:00: Reservoir 65 is emptying
     0:00:00: Reservoir 165 is emptying
   
   
  Hydraulic Status:
  -----------------------------------------------------------------------
     0:00:00: Balanced after 5 trials
     0:00:00: Reservoir 10 is emptying
     0:00:00: Reservoir 65 is emptying
     0:00:00: Reservoir 165 is emptying
   
   
  Hydraulic Status:
  -----------------------------------------------------------------------
     0:00:00: Balanced after 6 trials
     0:00:00: Reservoir 10 is emptying
     0:00:00: Reservoir 65 is emptying
     0:00:00: Reservoir 165 is emptying
   
   
  Hydraulic Status:
  -----------------------------------------------------------------------
     0:00:00: Balanced after 6 trials
     0:00:00: Reservoir 10 is emptying
     0:00:00: Reservoir 65 is emptying
     0:00:00: Reservoir 165 is emptying
   
   
  Hydraulic Status:
  -----------------------------------------------------------------------
     0:00:00: Balanced after 6 trials
     0:00:00: Reservoir 10 is emptying
     0:00:00: Reservoir 65 is emptying
     0:00:00: Reservoir 165 is emptying
   
   
  Hydraulic Status:
  -----------------------------------------------------------------------
     0:00:00: Balanced after 6 trials
     0:00:00: Reservoir 10 is emptying
     0:00:00: Reservoir 65 is emptying
     0:00:00: Reservoir 165 is emptying
   
   
  Hydraulic Status:
  -----------------------------------------------------------------------
     0:00:00: Balanced after 6 trials
     0:00:00: Reservoir 10 is emptying
     0:00:00: Reservoir 65 is emptying
     0:00:00: Reservoir 165 is emptying
   
   
  Hydraulic Status:
  -----------------------------------------------------------------------
     0:00:00: Balanced after 6 trials
     0:00:00: Reservoir 10 is emptying
     0:00:00: Reservoir 65 is emptying
     0:00:00: Reservoir 165 is emptying
   
   
  Hydraulic Status:
  -----------------------------------------------------------------------
     0:00:00: Balanced after 6 trials
     0:00:00: Reservoir 10 is emptying
     0:00:00: Reservoir 65 is emptying
     0:00:00: Reservoir 165 is emptying
   
   
  Hydraulic Status:
  -----------------------------------------------------------------------
     0:00:00: Balanced after 6 trials
     0:00:00: Reservoir 10 is emptying
     0:00:00: Reservoir 65 is emptying
     0:00:00: Reservoir 165 is emptying
   
   
  Hydraulic Status:
  -----------------------------------------------------------------------
     0:00:00: Balanced after 6 trials
     0:00:00: Reservoir 10 is emptying
     0:00:00: Reservoir 65 is emptying
     0:00:00: Reservoir 165 is emptying
   
   
  Hydraulic Status:
  -----------------------------------------------------------------------
     0:00:00: Balanced after 6 trials
     0:00:00: Reservoir 10 is emptying
     0:00:00: Reservoir 65 is emptying
     0:00:00: Reservoir 165 is emptying
   
   
  Hydraulic Status:
  -----------------------------------------------------------------------
     0:00:00: Balanced after 5 trials
     0:00:00: Reservoir 10 is emptying
     0:00:00: Reservoir 65 is emptying
     0:00:00: Reservoir 165 is emptying
   
   
  Hydraulic Status:
  -----------------------------------------------------------------------
     0:00:00: Balanced after 6 trials
     0:00:00: Reservoir 10 is emptying
     0:00:00: Reservoir 65 is emptying
     0:00:00: Reservoir 165 is emptying
   
   
  Hydraulic Status:
  -----------------------------------------------------------------------
     0:00:00: Balanced after 6 trials
     0:00:00: Reservoir 10 is emptying
     0:00:00: Reservoir 65 is emptying
     0:00:00: Reservoir 165 is emptying
   
   
  Hydraulic Status:
  -----------------------------------------------------------------------
     0:00:00: Balanced after 6 trials
     0:00:00: Reservoir 10 is emptying
     0:00:00: Reservoir 65 is emptying
     0:00:00: Reservoir 165 is emptying
   
   
  Hydraulic Status:
  -----------------------------------------------------------------------
     0:00:00: Balanced after 6 trials
     0:00:00: Reservoir 10 is emptying
     0:00:00: Reservoir 65 is emptying
     0:00:00: Reservoir 165 is emptying
   
   
  Hydraulic Status:
  -----------------------------------------------------------------------
     0:00:00: Balanced after 6 trials
     0:00:00: Reservoir 10 is emptying
     0:00:00: Reservoir 65 is emptying
     0:00:00: Reservoir 165 is emptying
   
   
  Hydraulic Status:
  -----------------------------------------------------------------------
     0:00:00: Balanced after 6 trials
     0:00:00: Reservoir 10 is emptying
     0:00:00: Reservoir 65 is emptying
     0:00:00: Reservoir 165 is emptying
   
   
  Hydraulic Status:
  -----------------------------------------------------------------------
     0:00:00: Balanced after 6 trials
     0:00:00: Reservoir 10 is emptying
     0:00:00: Reservoir 65 is emptying
     0:00:00: Reservoir 165 is emptying
   
   
  Hydraulic Status:
  -----------------------------------------------------------------------
     0:00:00: Balanced after 6 trials
     0:00:00: Reservoir 10 is emptying
     0:00:00: Reservoir 65 is emptying
     0:00:00: Reservoir 165 is emptying
   
   
  Hydraulic Status:
  -----------------------------------------------------------------------
     0:00:00: Balanced after 6 trials
     0:00:00: Reservoir 10 is emptying
     0:00:00: Reservoir 65 is emptying
     0:00:00: Reservoir 165 is emptying
   
   
  Hydraulic Status:
  -----------------------------------------------------------------------
     0:00:00: Balanced after 6 trials
     0:00:00: Reservoir 10 is emptying
     0:00:00: Reservoir 65 is emptying
     0:00:00: Reservoir 165 is emptying
   
   
  Hydraulic Status:
  -----------------------------------------------------------------------
     0:00:00: Balanced after 6 trials
     0:00:00: Reservoir 10 is emptying
     0:00:00: Reservoir 65 is emptying
     0:00:00: Reservoir 165 is emptying
   
   
  Hydraulic Status:
  -----------------------------------------------------------------------
     0:00:00: Balanced after 6 trials
     0:00:00: Reservoir 10 is emptying
     0:00:00: Reservoir 65 is emptying
     0:00:00: Reservoir 165 is emptying
   
   
  Hydraulic Status:
  -----------------------------------------------------------------------
     0:00:00: Balanced after 6 trials
     0:00:00: Reservoir 10 is emptying
     0:00:00: Reservoir 65 is emptying
     0:00:00: Reservoir 165 is emptying
   
   
  Hydraulic Status:
  -----------------------------------------------------------------------
     0:00:00: Balanced after 6 trials
     0:00:00: Reservoir 10 is emptying
     0:00:00: Reservoir 65 is emptying
     0:00:00: Reservoir 165 is emptying
   
   
  Hydraulic Status:
  -----------------------------------------------------------------------
     0:00:00: Balanced after 6 trials
     0:00:00: Reservoir 10 is emptying
     0:00:00: Reservoir 65 is filling
     0:00:00: Reservoir 165 is emptying
   
   
  Hydraulic Status:
  -----------------------------------------------------------------------
     0:00:00: Balanced after 6 trials
     0:00:00: Reservoir 10 is emptying
     0:00:00: Reservoir 65 is emptying
     0:00:00: Reservoir 165 is emptying
   
   
  Hydraulic Status:
  -----------------------------------------------------------------------
     0:00:00: Balanced after 6 trials
     0:00:00: Reservoir 10 is emptying
     0:00:00: Reservoir 65 is filling
     0:00:00: Reservoir 165 is emptying
   
   
  Hydraulic Status:
  -----------------------------------------------------------------------
     0:00:00: Balanced after 6 trials
     0:00:00: Reservoir 10 is emptying
     0:00:00: Reservoir 65 is emptying
     0:00:00: Reservoir 165 is emptying
   
   
  Hydraulic Status:
  -----------------------------------------------------------------------
     0:00:00: Balanced after 6 trials
     0:00:00: Reservoir 10 is emptying
     0:00:00: Reservoir 65 is emptying
     0:00:00: Reservoir 165 is emptying
   
   
  Hydraulic Status:
  -----------------------------------------------------------------------
     0:00:00: Balanced after 6 trials
     0:00:00: Reservoir 10 is emptying
     0:00:00: Reservoir 65 is emptying
     0:00:00: Reservoir 165 is emptying
   
   
  Hydraulic Status:
  -----------------------------------------------------------------------
     0:00:00: Balanced after 6 trials
     0:00:00: Reservoir 10 is emptying
     0:00:00: Reservoir 65 is emptying
     0:00:00: Reservoir 165 is emptying
   
   
  Hydraulic Status:
  -----------------------------------------------------------------------
     0:00:00: Balanced after 5 trials
     0:00:00: Reservoir 10 is emptying
     0:00:00: Reservoir 65 is emptying
     0:00:00: Reservoir 165 is emptying
   
   
  Hydraulic Status:
  -----------------------------------------------------------------------
     0:00:00: Balanced after 6 trials
     0:00:00: Reservoir 10 is emptying
     0:00:00: Reservoir 65 is emptying
     0:00:00: Reservoir 165 is emptying
   
   
  Hydraulic Status:
  -----------------------------------------------------------------------
     0:00:00: Balanced after 6 trials
     0:00:00: Reservoir 10 is emptying
     0:00:00: Reservoir 65 is emptying
     0:00:00: Reservoir 165 is emptying
   
   
  Hydraulic Status:
  -----------------------------------------------------------------------
     0:00:00: Balanced after 6 trials
     0:00:00: Reservoir 10 is emptying
     0:00:00: Reservoir 65 is emptying
     0:00:00: Reservoir 165 is emptying
   
   
  Hydraulic Status:
  -----------------------------------------------------------------------
     0:00:00: Balanced after 6 trials
     0:00:00: Reservoir 10 is emptying
     0:00:00: Reservoir 65 is emptying
     0:00:00: Reservoir 165 is emptying
   
   
  Hydraulic Status:
  -----------------------------------------------------------------------
     0:00:00: Balanced after 6 trials
     0:00:00: Reservoir 10 is emptying
     0:00:00: Reservoir 65 is emptying
     0:00:00: Reservoir 165 is emptying
   
   
  Hydraulic Status:
  -----------------------------------------------------------------------
     0:00:00: Balanced after 6 trials
     0:00:00: Reservoir 10 is emptying
     0:00:00: Reservoir 65 is emptying
     0:00:00: Reservoir 165 is emptying
   
   
  Hydraulic Status:
  -----------------------------------------------------------------------
     0:00:00: Balanced after 6 trials
     0:00:00: Reservoir 10 is emptying
     0:00:00: Reservoir 65 is emptying
     0:00:00: Reservoir 165 is emptying
   
   
  Hydraulic Status:
[...]
   
   
  Hydraulic Status:
  -----------------------------------------------------------------------
     0:00:00: Balanced after 6 trials
     0:00:00: Reservoir 10 is emptying
     0:00:00: Reservoir 65 is emptying
     0:00:00: Reservoir 165 is emptying
   
   
  Hydraulic Status:
  -----------------------------------------------------------------------
     0:00:00: Balanced after 6 trials
     0:00:00: Reservoir 10 is emptying
     0:00:00: Reservoir 65 is filling
     0:00:00: Reservoir 165 is emptying
   
   
  Hydraulic Status:
  -----------------------------------------------------------------------
     0:00:00: Balanced after 6 trials
     0:00:00: Reservoir 10 is emptying
     0:00:00: Reservoir 65 is emptying
     0:00:00: Reservoir 165 is emptying
   
   
  Hydraulic Status:
  -----------------------------------------------------------------------
     0:00:00: Balanced after 6 trials
     0:00:00: Reservoir 10 is emptying
     0:00:00: Reservoir 65 is emptying
     0:00:00: Reservoir 165 is emptying
   
   
  Hydraulic Status:
  -----------------------------------------------------------------------
     0:00:00: Balanced after 6 trials
     0:00:00: Reservoir 10 is emptying
     0:00:00: Reservoir 65 is emptying
     0:00:00: Reservoir 165 is emptying
   
   
  Hydraulic Status:
  -----------------------------------------------------------------------
     0:00:00: Balanced after 6 trials
     0:00:00: Reservoir 10 is emptying
     0:00:00: Reservoir 65 is emptying
     0:00:00: Reservoir 165 is emptying
   
   
  Hydraulic Status:
  -----------------------------------------------------------------------
     0:00:00: Balanced after 6 trials
     0:00:00: Reservoir 10 is emptying
     0:00:00: Reservoir 65 is emptying
     0:00:00: Reservoir 165 is emptying
   
   
  Hydraulic Status:
  -----------------------------------------------------------------------
     0:00:00: Balanced after 7 trials
     0:00:00: Reservoir 10 is emptying
     0:00:00: Reservoir 65 is emptying
     0:00:00: Reservoir 165 is emptying
   
   
  Hydraulic Status:
  -----------------------------------------------------------------------
     0:00:00: Balanced after 6 trials
     0:00:00: Reservoir 10 is emptying
     0:00:00: Reservoir 65 is emptying
     0:00:00: Reservoir 165 is emptying
   
   
  Hydraulic Status:
  -----------------------------------------------------------------------
     0:00:00: Balanced after 6 trials
     0:00:00: Reservoir 10 is emptying
     0:00:00: Reservoir 65 is filling
     0:00:00: Reservoir 165 is emptying
   
   
  Hydraulic Status:
  -----------------------------------------------------------------------
     0:00:00: Balanced after 6 trials
     0:00:00: Reservoir 10 is emptying
     0:00:00: Reservoir 65 is emptying
     0:00:00: Reservoir 165 is emptying
   
   
  Hydraulic Status:
  -----------------------------------------------------------------------
     0:00:00: Balanced after 6 trials
     0:00:00: Reservoir 10 is emptying
     0:00:00: Reservoir 65 is emptying
     0:00:00: Reservoir 165 is emptying
   
   
  Hydraulic Status:
  -----------------------------------------------------------------------
     0:00:00: Balanced after 6 trials
     0:00:00: Reservoir 10 is emptying
     0:00:00: Reservoir 65 is emptying
     0:00:00: Reservoir 165 is emptying
   
   
  Hydraulic Status:
  -----------------------------------------------------------------------
     0:00:00: Balanced after 6 trials
     0:00:00: Reservoir 10 is emptying
     0:00:00: Reservoir 65 is emptying
     0:00:00: Reservoir 165 is emptying
   
   
  Hydraulic Status:
  -----------------------------------------------------------------------
     0:00:00: Balanced after 6 trials
     0:00:00: Reservoir 10 is emptying
     0:00:00: Reservoir 65 is emptying
     0:00:00: Reservoir 165 is emptying
   
   
  Hydraulic Status:
  -----------------------------------------------------------------------
     0:00:00: Balanced after 6 trials
     0:00:00: Reservoir 10 is emptying
     0:00:00: Reservoir 65 is emptying
     0:00:00: Reservoir 165 is emptying
   
   
  Hydraulic Status:
  -----------------------------------------------------------------------
     0:00:00: Balanced after 6 trials
     0:00:00: Reservoir 10 is emptying
     0:00:00: Reservoir 65 is filling
     0:00:00: Reservoir 165 is emptying
   
   
  Hydraulic Status:
  -----------------------------------------------------------------------
     0:00:00: Balanced after 6 trials
     0:00:00: Reservoir 10 is emptying
     0:00:00: Reservoir 65 is emptying
     0:00:00: Reservoir 165 is emptying
   
   
  Hydraulic Status:
  -----------------------------------------------------------------------
     0:00:00: Balanced after 6 trials
     0:00:00: Reservoir 10 is emptying
     0:00:00: Reservoir 65 is emptying
     0:00:00: Reservoir 165 is emptying
   
   
  Hydraulic Status:
  -----------------------------------------------------------------------
     0:00:00: Balanced after 6 trials
     0:00:00: Reservoir 10 is emptying
     0:00:00: Reservoir 65 is filling
     0:00:00: Reservoir 165 is emptying
   
   
  Hydraulic Status:
  -----------------------------------------------------------------------
     0:00:00: Balanced after 7 trials
     0:00:00: Reservoir 10 is emptying
     0:00:00: Reservoir 65 is emptying
     0:00:00: Reservoir 165 is emptying
   
   
  Hydraulic Status:
  -----------------------------------------------------------------------
     0:00:00: Balanced after 6 trials
     0:00:00: Reservoir 10 is emptying
     0:00:00: Reservoir 65 is emptying
     0:00:00: Reservoir 165 is emptying
   
   
  Hydraulic Status:
  -----------------------------------------------------------------------
     0:00:00: Balanced after 6 trials
     0:00:00: Reservoir 10 is emptying
     0:00:00: Reservoir 65 is emptying
     0:00:00: Reservoir 165 is emptying
   
   
  Hydraulic Status:
  -----------------------------------------------------------------------
     0:00:00: Balanced after 6 trials
     0:00:00: Reservoir 10 is emptying
     0:00:00: Reservoir 65 is emptying
     0:00:00: Reservoir 165 is emptying
   
   
  Hydraulic Status:
  -----------------------------------------------------------------------
     0:00:00: Balanced after 6 trials
     0:00:00: Reservoir 10 is emptying
     0:00:00: Reservoir 65 is emptying
     0:00:00: Reservoir 165 is emptying
   
   
  Hydraulic Status:
  -----------------------------------------------------------------------
     0:00:00: Balanced after 6 trials
     0:00:00: Reservoir 10 is emptying
     0:00:00: Reservoir 65 is emptying
     0:00:00: Reservoir 165 is emptying
   
   
  Hydraulic Status:
  -----------------------------------------------------------------------
     0:00:00: Balanced after 6 trials
     0:00:00: Reservoir 10 is emptying
     0:00:00: Reservoir 65 is emptying
     0:00:00: Reservoir 165 is emptying
   
   
  Hydraulic Status:
  -----------------------------------------------------------------------
     0:00:00: Balanced after 6 trials
     0:00:00: Reservoir 10 is emptying
     0:00:00: Reservoir 65 is emptying
     0:00:00: Reservoir 165 is emptying
   
   
  Hydraulic Status:
  -----------------------------------------------------------------------
     0:00:00: Balanced after 6 trials
     0:00:00: Reservoir 10 is emptying
     0:00:00: Reservoir 65 is emptying
     0:00:00: Reservoir 165 is emptying
   
   
  Hydraulic Status:
  -----------------------------------------------------------------------
     0:00:00: Balanced after 6 trials
     0:00:00: Reservoir 10 is emptying
     0:00:00: Reservoir 65 is emptying
     0:00:00: Reservoir 165 is emptying
   
   
  Hydraulic Status:
  -----------------------------------------------------------------------
     0:00:00: Balanced after 7 trials
     0:00:00: Reservoir 10 is emptying
     0:00:00: Reservoir 65 is emptying
     0:00:00: Reservoir 165 is emptying
   
   
  Hydraulic Status:
  -----------------------------------------------------------------------
     0:00:00: Balanced after 6 trials
     0:00:00: Reservoir 10 is emptying
     0:00:00: Reservoir 65 is emptying
     0:00:00: Reservoir 165 is emptying
   
   
  Hydraulic Status:
  -----------------------------------------------------------------------
     0:00:00: Balanced after 6 trials
     0:00:00: Reservoir 10 is emptying
     0:00:00: Reservoir 65 is emptying
     0:00:00: Reservoir 165 is emptying
   
   
  Hydraulic Status:
  -----------------------------------------------------------------------
     0:00:00: Balanced after 6 trials
     0:00:00: Reservoir 10 is emptying
     0:00:00: Reservoir 65 is emptying
     0:00:00: Reservoir 165 is emptying
   
   
  Hydraulic Status:
  -----------------------------------------------------------------------
     0:00:00: Balanced after 6 trials
     0:00:00: Reservoir 10 is emptying
     0:00:00: Reservoir 65 is emptying
     0:00:00: Reservoir 165 is emptying
   
   
  Hydraulic Status:
  -----------------------------------------------------------------------
     0:00:00: Balanced after 6 trials
     0:00:00: Reservoir 10 is emptying
     0:00:00: Reservoir 65 is emptying
     0:00:00: Reservoir 165 is emptying
   
   
  Hydraulic Status:
  -----------------------------------------------------------------------
     0:00:00: Balanced after 6 trials
     0:00:00: Reservoir 10 is emptying
     0:00:00: Reservoir 65 is emptying
     0:00:00: Reservoir 165 is emptying
   
   
  Hydraulic Status:
  -----------------------------------------------------------------------
     0:00:00: Balanced after 5 trials
     0:00:00: Reservoir 10 is emptying
     0:00:00: Reservoir 65 is emptying
     0:00:00: Reservoir 165 is emptying
   
   
  Hydraulic Status:
  -----------------------------------------------------------------------
     0:00:00: Balanced after 6 trials
     0:00:00: Reservoir 10 is emptying
     0:00:00: Reservoir 65 is emptying
     0:00:00: Reservoir 165 is emptying
   
   
  Hydraulic Status:
  -----------------------------------------------------------------------
     0:00:00: Balanced after 6 trials
     0:00:00: Reservoir 10 is emptying
     0:00:00: Reservoir 65 is emptying
     0:00:00: Reservoir 165 is emptying
   
   
  Hydraulic Status:
  -----------------------------------------------------------------------
     0:00:00: Balanced after 6 trials
     0:00:00: Reservoir 10 is emptying
     0:00:00: Reservoir 65 is emptying
     0:00:00: Reservoir 165 is emptying
   
   
  Hydraulic Status:
  -----------------------------------------------------------------------
     0:00:00: Balanced after 6 trials
     0:00:00: Reservoir 10 is emptying
     0:00:00: Reservoir 65 is filling
     0:00:00: Reservoir 165 is emptying
   
   
  Hydraulic Status:
  -----------------------------------------------------------------------
     0:00:00: Balanced after 6 trials
     0:00:00: Reservoir 10 is emptying
     0:00:00: Reservoir 65 is filling
     0:00:00: Reservoir 165 is emptying
   
   
  Hydraulic Status:
  -----------------------------------------------------------------------
     0:00:00: Balanced after 5 trials
     0:00:00: Reservoir 10 is emptying
     0:00:00: Reservoir 65 is emptying
     0:00:00: Reservoir 165 is emptying
   
   
  Hydraulic Status:
  -----------------------------------------------------------------------
     0:00:00: Balanced after 6 trials
     0:00:00: Reservoir 10 is emptying
     0:00:00: Reservoir 65 is emptying
     0:00:00: Reservoir 165 is emptying
   
   
  Hydraulic Status:
  -----------------------------------------------------------------------
     0:00:00: Balanced after 6 trials
     0:00:00: Reservoir 10 is emptying
     0:00:00: Reservoir 65 is emptying
     0:00:00: Reservoir 165 is emptying
   
   
  Hydraulic Status:
  -----------------------------------------------------------------------
     0:00:00: Balanced after 6 trials
     0:00:00: Reservoir 10 is emptying
     0:00:00: Reservoir 65 is emptying
     0:00:00: Reservoir 165 is emptying
   
   
  Hydraulic Status:
  -----------------------------------------------------------------------
     0:00:00: Balanced after 6 trials
     0:00:00: Reservoir 10 is emptying
     0:00:00: Reservoir 65 is emptying
     0:00:00: Reservoir 165 is emptying
   
   
  Hydraulic Status:
  -----------------------------------------------------------------------
     0:00:00: Balanced after 6 trials
     0:00:00: Reservoir 10 is emptying
     0:00:00: Reservoir 65 is emptying
     0:00:00: Reservoir 165 is emptying
   
   
  Hydraulic Status:
  -----------------------------------------------------------------------
     0:00:00: Balanced after 6 trials
     0:00:00: Reservoir 10 is emptying
     0:00:00: Reservoir 65 is emptying
     0:00:00: Reservoir 165 is emptying
   
   
  Hydraulic Status:
  -----------------------------------------------------------------------
     0:00:00: Balanced after 6 trials
     0:00:00: Reservoir 10 is emptying
     0:00:00: Reservoir 65 is emptying
     0:00:00: Reservoir 165 is emptying
   
   
  Hydraulic Status:
  -----------------------------------------------------------------------
     0:00:00: Balanced after 6 trials
     0:00:00: Reservoir 10 is emptying
     0:00:00: Reservoir 65 is filling
     0:00:00: Reservoir 165 is emptying
   
   
  Hydraulic Status:
  -----------------------------------------------------------------------
     0:00:00: Balanced after 6 trials
     0:00:00: Reservoir 10 is emptying
     0:00:00: Reservoir 65 is emptying
     0:00:00: Reservoir 165 is emptying
   
   
  Hydraulic Status:
  -----------------------------------------------------------------------
     0:00:00: Balanced after 6 trials
     0:00:00: Reservoir 10 is emptying
     0:00:00: Reservoir 65 is emptying
     0:00:00: Reservoir 165 is emptying
   
   
  Hydraulic Status:
  -----------------------------------------------------------------------
     0:00:00: Balanced after 6 trials
     0:00:00: Reservoir 10 is emptying
     0:00:00: Reservoir 65 is emptying
     0:00:00: Reservoir 165 is emptying
   
   
  Hydraulic Status:
  -----------------------------------------------------------------------
     0:00:00: Balanced after 6 trials
     0:00:00: Reservoir 10 is emptying
     0:00:00: Reservoir 65 is emptying
     0:00:00: Reservoir 165 is emptying
   
   
  Hydraulic Status:
  -----------------------------------------------------------------------
     0:00:00: Balanced after 6 trials
     0:00:00: Reservoir 10 is emptying
     0:00:00: Reservoir 65 is emptying
     0:00:00: Reservoir 165 is emptying
   
   
  Hydraulic Status:
  -----------------------------------------------------------------------
     0:00:00: Balanced after 6 trials
     0:00:00: Reservoir 10 is emptying
     0:00:00: Reservoir 65 is emptying
     0:00:00: Reservoir 165 is emptying
   
   
  Hydraulic Status:
  -----------------------------------------------------------------------
     0:00:00: Balanced after 6 trials
     0:00:00: Reservoir 10 is emptying
     0:00:00: Reservoir 65 is filling
     0:00:00: Reservoir 165 is emptying
   
   
  Hydraulic Status:
  -----------------------------------------------------------------------
     0:00:00: Balanced after 7 trials
     0:00:00: Reservoir 10 is emptying
     0:00:00: Reservoir 65 is emptying
     0:00:00: Reservoir 165 is emptying
   
   
  Hydraulic Status:
  -----------------------------------------------------------------------
     0:00:00: Balanced after 6 trials
     0:00:00: Reservoir 10 is emptying
     0:00:00: Reservoir 65 is emptying
     0:00:00: Reservoir 165 is emptying
   
   
  Hydraulic Status:
  -----------------------------------------------------------------------
     0:00:00: Balanced after 6 trials
     0:00:00: Reservoir 10 is emptying
     0:00:00: Reservoir 65 is emptying
     0:00:00: Reservoir 165 is emptying
   
   
  Hydraulic Status:
  -----------------------------------------------------------------------
     0:00:00: Balanced after 6 trials
     0:00:00: Reservoir 10 is emptying
     0:00:00: Reservoir 65 is emptying
     0:00:00: Reservoir 165 is emptying
   
   
  Hydraulic Status:
  -----------------------------------------------------------------------
     0:00:00: Balanced after 6 trials
     0:00:00: Reservoir 10 is emptying
     0:00:00: Reservoir 65 is emptying
     0:00:00: Reservoir 165 is emptying
   
   
  Hydraulic Status:
  -----------------------------------------------------------------------
     0:00:00: Balanced after 6 trials
     0:00:00: Reservoir 10 is emptying
     0:00:00: Reservoir 65 is emptying
     0:00:00: Reservoir 165 is emptying
   
   
  Hydraulic Status:
  -----------------------------------------------------------------------
     0:00:00: Balanced after 7 trials
     0:00:00: Reservoir 10 is emptying
     0:00:00: Reservoir 65 is emptying
     0:00:00: Reservoir 165 is emptying
   
   
  Hydraulic Status:
  -----------------------------------------------------------------------
     0:00:00: Balanced after 7 trials
     0:00:00: Reservoir 10 is emptying
     0:00:00: Reservoir 65 is emptying
     0:00:00: Reservoir 165 is emptying
   
   
  Hydraulic Status:
  -----------------------------------------------------------------------
     0:00:00: Balanced after 6 trials
     0:00:00: Reservoir 10 is emptying
     0:00:00: Reservoir 65 is emptying
     0:00:00: Reservoir 165 is emptying
   
   
  Hydraulic Status:
  -----------------------------------------------------------------------
     0:00:00: Balanced after 7 trials
     0:00:00: Reservoir 10 is emptying
     0:00:00: Reservoir 65 is emptying
     0:00:00: Reservoir 165 is emptying
   
   
  Hydraulic Status:
  -----------------------------------------------------------------------
     0:00:00: Balanced after 6 trials
     0:00:00: Reservoir 10 is emptying
     0:00:00: Reservoir 65 is emptying
     0:00:00: Reservoir 165 is emptying
   
   
  Hydraulic Status:
  -----------------------------------------------------------------------
     0:00:00: Balanced after 6 trials
     0:00:00: Reservoir 10 is emptying
     0:00:00: Reservoir 65 is emptying
     0:00:00: Reservoir 165 is emptying
   
   
  Hydraulic Status:
  -----------------------------------------------------------------------
     0:00:00: Balanced after 6 trials
     0:00:00: Reservoir 10 is emptying
     0:00:00: Reservoir 65 is emptying
     0:00:00: Reservoir 165 is emptying
   
   
  Hydraulic Status:
  -----------------------------------------------------------------------
     0:00:00: Balanced after 6 trials
     0:00:00: Reservoir 10 is emptying
     0:00:00: Reservoir 65 is emptying
     0:00:00: Reservoir 165 is emptying
   
   
  Hydraulic Status:
  -----------------------------------------------------------------------
     0:00:00: Balanced after 7 trials
     0:00:00: Reservoir 10 is emptying
     0:00:00: Reservoir 65 is emptying
     0:00:00: Reservoir 165 is emptying
   
   
  Hydraulic Status:
  -----------------------------------------------------------------------
     0:00:00: Balanced after 6 trials
     0:00:00: Reservoir 10 is emptying
     0:00:00: Reservoir 65 is emptying
     0:00:00: Reservoir 165 is emptying
   
   
  Hydraulic Status:
  -----------------------------------------------------------------------
     0:00:00: Balanced after 6 trials
     0:00:00: Reservoir 10 is emptying
     0:00:00: Reservoir 65 is emptying
     0:00:00: Reservoir 165 is emptying
   
   
  Hydraulic Status:
  -----------------------------------------------------------------------
     0:00:00: Balanced after 6 trials
     0:00:00: Reservoir 10 is emptying
     0:00:00: Reservoir 65 is filling
     0:00:00: Reservoir 165 is emptying
   
   
  Hydraulic Status:
  -----------------------------------------------------------------------
     0:00: