  Page 1                                    Thu Oct 31 14:13:27 2019

  ******************************************************************
  *                           E P A N E T                          *
  *                   Hydraulic and Water Quality                  *
  *                   Analysis for Pipe Networks                   *
  *                         Version 2.1                            *
  ******************************************************************
  
  Analysis begun Thu Oct 31 14:13:27 2019

   
  Hydraulic Status:
  -----------------------------------------------------------------------
     0:00:00: Balanced after 4 trials
     0:00:00: Reservoir R1 is emptying
     0:00:00: Tank T3 is filling at 3.00 m
     0:00:00: Tank T1 is emptying at 3.00 m
     0:00:00: Tank T7 is filling at 2.50 m
     0:00:00: Tank T6 is filling at 5.20 m
     0:00:00: Tank T5 is filling at 1.00 m
     0:00:00: Tank T2 is filling at 0.50 m
     0:00:00: Tank T4 is filling at 2.50 m
   
   
  Hydraulic Status:
  -----------------------------------------------------------------------
     0:00:00: Balanced after 4 trials
     0:00:00: Reservoir R1 is emptying
     0:00:00: Tank T3 is filling at 2.98 m
     0:00:00: Tank T1 is emptying at 3.00 m
     0:00:00: Tank T7 is filling at 2.50 m
     0:00:00: Tank T6 is filling at 5.21 m
     0:00:00: Tank T5 is filling at 1.00 m
     0:00:00: Tank T2 is filling at 0.50 m
     0:00:00: Tank T4 is filling at 2.50 m
   
   
  Hydraulic Status:
  -----------------------------------------------------------------------
     0:00:00: Balanced after 4 trials
     0:00:00: Reservoir R1 is emptying
     0:00:00: Tank T3 is filling at 3.01 m
     0:00:00: Tank T1 is emptying at 3.00 m
     0:00:00: Tank T7 is filling at 2.50 m
     0:00:00: Tank T6 is filling at 5.21 m
     0:00:00: Tank T5 is filling at 1.00 m
     0:00:00: Tank T2 is filling at 0.50 m
     0:00:00: Tank T4 is filling at 2.51 m
   
   
  Hydraulic Status:
  -----------------------------------------------------------------------
     0:00:00: Balanced after 4 trials
     0:00:00: Reservoir R1 is emptying
     0:00:00: Tank T3 is filling at 3.01 m
     0:00:00: Tank T1 is emptying at 2.99 m
     0:00:00: Tank T7 is filling at 2.50 m
     0:00:00: Tank T6 is filling at 5.21 m
     0:00:00: Tank T5 is filling at 1.00 m
     0:00:00: Tank T2 is filling at 0.50 m
     0:00:00: Tank T4 is filling at 2.51 m
   
   
  Hydraulic Status:
  -----------------------------------------------------------------------
     0:00:00: Balanced after 4 trials
     0:00:00: Reservoir R1 is emptying
     0:00:00: Tank T3 is filling at 2.99 m
     0:00:00: Tank T1 is emptying at 3.02 m
     0:00:00: Tank T7 is filling at 2.50 m
     0:00:00: Tank T6 is filling at 5.19 m
     0:00:00: Tank T5 is filling at 0.99 m
     0:00:00: Tank T2 is filling at 0.50 m
     0:00:00: Tank T4 is filling at 2.50 m
   
   
  Hydraulic Status:
  -----------------------------------------------------------------------
     0:00:00: Balanced after 4 trials
     0:00:00: Reservoir R1 is emptying
     0:00:00: Tank T3 is filling at 3.00 m
     0:00:00: Tank T1 is emptying at 2.98 m
     0:00:00: Tank T7 is filling at 2.51 m
     0:00:00: Tank T6 is filling at 5.19 m
     0:00:00: Tank T5 is filling at 1.00 m
     0:00:00: Tank T2 is filling at 0.50 m
     0:00:00: Tank T4 is filling at 2.50 m
   
   
  Hydraulic Status:
  -----------------------------------------------------------------------
     0:00:00: Balanced after 4 trials
     0:00:00: Reservoir R1 is emptying
     0:00:00: Tank T3 is filling at 2.99 m
     0:00:00: Tank T1 is emptying at 2.97 m
     0:00:00: Tank T7 is filling at 2.52 m
     0:00:00: Tank T6 is filling at 5.25 m
     0:00:00: Tank T5 is filling at 1.00 m
     0:00:00: Tank T2 is filling at 0.50 m
     0:00:00: Tank T4 is filling at 2.49 m
   
   
  Hydraulic Status:
  -----------------------------------------------------------------------
     0:00:00: Balanced after 4 trials
     0:00:00: Reservoir R1 is emptying
     0:00:00: Tank T3 is filling at 3.02 m
     0:00:00: Tank T1 is emptying at 3.01 m
     0:00:00: Tank T7 is filling at 2.51 m
     0:00:00: Tank T6 is filling at 5.18 m
     0:00:00: Tank T5 is filling at 0.99 m
     0:00:00: Tank T2 is filling at 0.50 m
     0:00:00: Tank T4 is filling at 2.52 m
   
   
  Hydraulic Status:
  -----------------------------------------------------------------------
     0:00:00: Balanced after 4 trials
     0:00:00: Reservoir R1 is emptying
     0:00:00: Tank T3 is filling at 3.00 m
     0:00:00: Tank T1 is emptying at 3.01 m
     0:00:00: Tank T7 is filling at 2.50 m
     0:00:00: Tank T6 is filling at 5.21 m
     0:00:00: Tank T5 is filling at 1.00 m
     0:00:00: Tank T2 is filling at 0.50 m
     0:00:00: Tank T4 is filling at 2.51 m
   
   
  Hydraulic Status:
  -----------------------------------------------------------------------
     0:00:00: Balanced after 4 trials
     0:00:00: Reservoir R1 is emptying
     0:00:00: Tank T3 is filling at 3.00 m
     0:00:00: Tank T1 is emptying at 3.01 m
     0:00:00: Tank T7 is filling at 2.48 m
     0:00:00: Tank T6 is filling at 5.22 m
     0:00:00: Tank T5 is filling at 1.00 m
     0:00:00: Tank T2 is filling at 0.50 m
     0:00:00: Tank T4 is filling at 2.50 m
   
   
  Hydraulic Status:
  -----------------------------------------------------------------------
     0:00:00: Balanced after 4 trials
     0:00:00: Reservoir R1 is emptying
     0:00:00: Tank T3 is filling at 3.00 m
     0:00:00: Tank T1 is emptying at 3.00 m
     0:00:00: Tank T7 is filling at 2.51 m
     0:00:00: Tank T6 is filling at 5.19 m
     0:00:00: Tank T5 is filling at 1.00 m
     0:00:00: Tank T2 is filling at 0.50 m
     0:00:00: Tank T4 is filling at 2.50 m
   
   
  Hydraulic Status:
  -----------------------------------------------------------------------
     0:00:00: Balanced after 4 trials
     0:00:00: Reservoir R1 is emptying
     0:00:00: Tank T3 is filling at 2.99 m
     0:00:00: Tank T1 is emptying at 3.00 m
     0:00:00: Tank T7 is filling at 2.50 m
     0:00:00: Tank T6 is filling at 5.19 m
     0:00:00: Tank T5 is filling at 1.00 m
     0:00:00: Tank T2 is filling at 0.50 m
     0:00:00: Tank T4 is filling at 2.50 m
   
   
  Hydraulic Status:
  -----------------------------------------------------------------------
     0:00:00: Balanced after 4 trials
     0:00:00: Reservoir R1 is emptying
     0:00:00: Tank T3 is filling at 3.02 m
     0:00:00: Tank T1 is emptying at 3.00 m
     0:00:00: Tank T7 is filling at 2.51 m
     0:00:00: Tank T6 is filling at 5.18 m
     0:00:00: Tank T5 is filling at 1.00 m
     0:00:00: Tank T2 is filling at 0.50 m
     0:00:00: Tank T4 is filling at 2.49 m
   
   
  Hydraulic Status:
  -----------------------------------------------------------------------
     0:00:00: Balanced after 4 trials
     0:00:00: Reservoir R1 is emptying
     0:00:00: Tank T3 is filling at 3.01 m
     0:00:00: Tank T1 is emptying at 3.00 m
     0:00:00: Tank T7 is filling at 2.50 m
     0:00:00: Tank T6 is filling at 5.18 m
     0:00:00: Tank T5 is filling at 1.00 m
     0:00:00: Tank T2 is filling at 0.50 m
     0:00:00: Tank T4 is filling at 2.49 m
   
   
  Hydraulic Status:
  -----------------------------------------------------------------------
     0:00:00: Balanced after 4 trials
     0:00:00: Reservoir R1 is emptying
     0:00:00: Tank T3 is filling at 3.01 m
     0:00:00: Tank T1 is emptying at 3.00 m
     0:00:00: Tank T7 is filling at 2.49 m
     0:00:00: Tank T6 is filling at 5.21 m
     0:00:00: Tank T5 is filling at 1.00 m
     0:00:00: Tank T2 is filling at 0.50 m
     0:00:00: Tank T4 is filling at 2.49 m
   
   
  Hydraulic Status:
  -----------------------------------------------------------------------
     0:00:00: Balanced after 4 trials
     0:00:00: Reservoir R1 is emptying
     0:00:00: Tank T3 is filling at 3.01 m
     0:00:00: Tank T1 is emptying at 3.00 m
     0:00:00: Tank T7 is filling at 2.51 m
     0:00:00: Tank T6 is filling at 5.19 m
     0:00:00: Tank T5 is filling at 1.00 m
     0:00:00: Tank T2 is filling at 0.50 m
     0:00:00: Tank T4 is filling at 2.50 m
   
   
  Hydraulic Status:
  -----------------------------------------------------------------------
     0:00:00: Balanced after 4 trials
     0:00:00: Reservoir R1 is emptying
     0:00:00: Tank T3 is filling at 2.97 m
     0:00:00: Tank T1 is emptying at 3.00 m
     0:00:00: Tank T7 is filling at 2.52 m
     0:00:00: Tank T6 is filling at 5.22 m
     0:00:00: Tank T5 is filling at 1.00 m
     0:00:00: Tank T2 is filling at 0.50 m
     0:00:00: Tank T4 is filling at 2.50 m
   
   
  Hydraulic Status:
  -----------------------------------------------------------------------
     0:00:00: Balanced after 4 trials
     0:00:00: Reservoir R1 is emptying
     0:00:00: Tank T3 is filling at 2.99 m
     0:00:00: Tank T1 is emptying at 3.00 m
     0:00:00: Tank T7 is filling at 2.49 m
     0:00:00: Tank T6 is filling at 5.18 m
     0:00:00: Tank T5 is filling at 1.00 m
     0:00:00: Tank T2 is filling at 0.50 m
     0:00:00: Tank T4 is filling at 2.51 m
   
   
  Hydraulic Status:
  -----------------------------------------------------------------------
     0:00:00: Balanced after 4 trials
     0:00:00: Reservoir R1 is emptying
     0:00:00: Tank T3 is filling at 2.99 m
     0:00:00: Tank T1 is emptying at 3.03 m
     0:00:00: Tank T7 is filling at 2.50 m
     0:00:00: Tank T6 is filling at 5.21 m
     0:00:00: Tank T5 is filling at 1.00 m
     0:00:00: Tank T2 is filling at 0.50 m
     0:00:00: Tank T4 is filling at 2.51 m
   
   
  Hydraulic Status:
  -----------------------------------------------------------------------
     0:00:00: Balanced after 4 trials
     0:00:00: Reservoir R1 is emptying
     0:00:00: Tank T3 is filling at 2.97 m
     0:00:00: Tank T1 is emptying at 2.98 m
     0:00:00: Tank T7 is filling at 2.50 m
     0:00:00: Tank T6 is filling at 5.19 m
     0:00:00: Tank T5 is filling at 1.00 m
     0:00:00: Tank T2 is filling at 0.50 m
     0:00:00: Tank T4 is filling at 2.50 m
   
   
  Hydraulic Status:
  -----------------------------------------------------------------------
     0:00:00: Balanced after 4 trials
     0:00:00: Reservoir R1 is emptying
     0:00:00: Tank T3 is filling at 3.02 m
     0:00:00: Tank T1 is emptying at 3.02 m
     0:00:00: Tank T7 is filling at 2.50 m
     0:00:00: Tank T6 is filling at 5.18 m
     0:00:00: Tank T5 is filling at 1.01 m
     0:00:00: Tank T2 is filling at 0.50 m
     0:00:00: Tank T4 is filling at 2.49 m
   
   
  Hydraulic Status:
  -----------------------------------------------------------------------
     0:00:00: Balanced after 4 trials
     0:00:00: Reservoir R1 is emptying
     0:00:00: Tank T3 is filling at 3.00 m
     0:00:00: Tank T1 is emptying at 3.00 m
     0:00:00: Tank T7 is filling at 2.51 m
     0:00:00: Tank T6 is filling at 5.20 m
     0:00:00: Tank T5 is filling at 1.00 m
     0:00:00: Tank T2 is filling at 0.50 m
     0:00:00: Tank T4 is filling at 2.51 m
   
   
  Hydraulic Status:
  -----------------------------------------------------------------------
     0:00:00: Balanced after 4 trials
     0:00:00: Reservoir R1 is emptying
     0:00:00: Tank T3 is filling at 3.01 m
     0:00:00: Tank T1 is emptying at 3.02 m
     0:00:00: Tank T7 is filling at 2.51 m
     0:00:00: Tank T6 is filling at 5.17 m
     0:00:00: Tank T5 is filling at 1.00 m
     0:00:00: Tank T2 is filling at 0.50 m
     0:00:00: Tank T4 is filling at 2.50 m
   
   
  Hydraulic Status:
  -----------------------------------------------------------------------
     0:00:00: Balanced after 4 trials
     0:00:00: Reservoir R1 is emptying
     0:00:00: Tank T3 is filling at 3.01 m
     0:00:00: Tank T1 is emptying at 2.99 m
     0:00:00: Tank T7 is filling at 2.51 m
     0:00:00: Tank T6 is filling at 5.23 m
     0:00:00: Tank T5 is filling at 1.00 m
     0:00:00: Tank T2 is filling at 0.50 m
     0:00:00: Tank T4 is filling at 2.49 m
   
   
  Hydraulic Status:
  -----------------------------------------------------------------------
     0:00:00: Balanced after 4 trials
     0:00:00: Reservoir R1 is emptying
     0:00:00: Tank T3 is filling at 2.99 m
     0:00:00: Tank T1 is emptying at 2.98 m
     0:00:00: Tank T7 is filling at 2.50 m
     0:00:00: Tank T6 is filling at 5.20 m
     0:00:00: Tank T5 is filling at 1.00 m
     0:00:00: Tank T2 is filling at 0.50 m
     0:00:00: Tank T4 is filling at 2.49 m
   
   
  Hydraulic Status:
  -----------------------------------------------------------------------
     0:00:00: Balanced after 4 trials
     0:00:00: Reservoir R1 is emptying
     0:00:00: Tank T3 is filling at 3.00 m
     0:00:00: Tank T1 is emptying at 2.99 m
     0:00:00: Tank T7 is filling at 2.49 m
     0:00:00: Tank T6 is filling at 5.21 m
     0:00:00: Tank T5 is filling at 1.00 m
     0:00:00: Tank T2 is filling at 0.50 m
     0:00:00: Tank T4 is filling at 2.49 m
   
   
  Hydraulic Status:
  -----------------------------------------------------------------------
     0:00:00: Balanced after 4 trials
     0:00:00: Reservoir R1 is emptying
     0:00:00: Tank T3 is filling at 3.00 m
     0:00:00: Tank T1 is emptying at 2.98 m
     0:00:00: Tank T7 is filling at 2.50 m
     0:00:00: Tank T6 is filling at 5.22 m
     0:00:00: Tank T5 is filling at 1.00 m
     0:00:00: Tank T2 is filling at 0.50 m
     0:00:00: Tank T4 is filling at 2.50 m
   
   
  Hydraulic Status:
  -----------------------------------------------------------------------
     0:00:00: Balanced after 4 trials
     0:00:00: Reservoir R1 is emptying
     0:00:00: Tank T3 is filling at 2.99 m
     0:00:00: Tank T1 is emptying at 2.99 m
     0:00:00: Tank T7 is filling at 2.50 m
     0:00:00: Tank T6 is filling at 5.21 m
     0:00:00: Tank T5 is filling at 1.00 m
     0:00:00: Tank T2 is filling at 0.50 m
     0:00:00: Tank T4 is filling at 2.48 m
   
   
  Hydraulic Status:
  -----------------------------------------------------------------------
     0:00:00: Balanced after 4 trials
     0:00:00: Reservoir R1 is emptying
     0:00:00: Tank T3 is filling at 3.01 m
     0:00:00: Tank T1 is emptying at 2.98 m
     0:00:00: Tank T7 is filling at 2.51 m
     0:00:00: Tank T6 is filling at 5.23 m
     0:00:00: Tank T5 is filling at 0.99 m
     0:00:00: Tank T2 is filling at 0.50 m
     0:00:00: Tank T4 is filling at 2.51 m
   
   
  Hydraulic Status:
  -----------------------------------------------------------------------
     0:00:00: Balanced after 4 trials
     0:00:00: Reservoir R1 is emptying
     0:00:00: Tank T3 is filling at 2.99 m
     0:00:00: Tank T1 is emptying at 2.98 m
     0:00:00: Tank T7 is filling at 2.49 m
     0:00:00: Tank T6 is filling at 5.22 m
     0:00:00: Tank T5 is filling at 1.00 m
     0:00:00: Tank T2 is filling at 0.50 m
     0:00:00: Tank T4 is filling at 2.51 m
   
   
  Hydraulic Status:
  -----------------------------------------------------------------------
     0:00:00: Balanced after 4 trials
     0:00:00: Reservoir R1 is emptying
     0:00:00: Tank T3 is filling at 3.04 m
     0:00:00: Tank T1 is emptying at 3.00 m
     0:00:00: Tank T7 is filling at 2.50 m
     0:00:00: Tank T6 is filling at 5.18 m
     0:00:00: Tank T5 is filling at 1.00 m
     0:00:00: Tank T2 is filling at 0.50 m
     0:00:00: Tank T4 is filling at 2.48 m
   
   
  Hydraulic Status:
  -----------------------------------------------------------------------
     0:00:00: Balanced after 4 trials
     0:00:00: Reservoir R1 is emptying
     0:00:00: Tank T3 is filling at 3.00 m
     0:00:00: Tank T1 is emptying at 3.00 m
     0:00:00: Tank T7 is filling at 2.50 m
     0:00:00: Tank T6 is filling at 5.21 m
     0:00:00: Tank T5 is filling at 1.00 m
     0:00:00: Tank T2 is filling at 0.50 m
     0:00:00: Tank T4 is filling at 2.50 m
   
   
  Hydraulic Status:
  -----------------------------------------------------------------------
     0:00:00: Balanced after 4 trials
     0:00:00: Reservoir R1 is emptying
     0:00:00: Tank T3 is filling at 3.00 m
     0:00:00: Tank T1 is emptying at 3.01 m
     0:00:00: Tank T7 is filling at 2.50 m
     0:00:00: Tank T6 is filling at 5.18 m
     0:00:00: Tank T5 is filling at 1.00 m
     0:00:00: Tank T2 is filling at 0.50 m
     0:00:00: Tank T4 is filling at 2.48 m
   
   
  Hydraulic Status:
  -----------------------------------------------------------------------
     0:00:00: Balanced after 4 trials
     0:00:00: Reservoir R1 is emptying
     0:00:00: Tank T3 is filling at 3.00 m
     0:00:00: Tank T1 is emptying at 2.99 m
     0:00:00: Tank T7 is filling at 2.51 m
     0:00:00: Tank T6 is filling at 5.18 m
     0:00:00: Tank T5 is filling at 1.00 m
     0:00:00: Tank T2 is filling at 0.49 m
     0:00:00: Tank T4 is filling at 2.51 m
   
   
  Hydraulic Status:
  -----------------------------------------------------------------------
     0:00:00: Balanced after 4 trials
     0:00:00: Reservoir R1 is emptying
     0:00:00: Tank T3 is filling at 3.00 m
     0:00:00: Tank T1 is emptying at 2.99 m
     0:00:00: Tank T7 is filling at 2.51 m
     0:00:00: Tank T6 is filling at 5.21 m
     0:00:00: Tank T5 is filling at 1.00 m
     0:00:00: Tank T2 is filling at 0.50 m
     0:00:00: Tank T4 is filling at 2.49 m
   
   
  Hydraulic Status:
  -----------------------------------------------------------------------
     0:00:00: Balanced after 4 trials
     0:00:00: Reservoir R1 is emptying
     0:00:00: Tank T3 is filling at 3.01 m
     0:00:00: Tank T1 is emptying at 3.01 m
     0:00:00: Tank T7 is filling at 2.50 m
     0:00:00: Tank T6 is filling at 5.21 m
     0:00:00: Tank T5 is filling at 1.00 m
     0:00:00: Tank T2 is filling at 0.50 m
     0:00:00: Tank T4 is filling at 2.50 m
   
   
  Hydraulic Status:
  -----------------------------------------------------------------------
     0:00:00: Balanced after 4 trials
     0:00:00: Reservoir R1 is emptying
     0:00:00: Tank T3 is filling at 3.00 m
     0:00:00: Tank T1 is emptying at 3.00 m
     0:00:00: Tank T7 is filling at 2.49 m
     0:00:00: Tank T6 is filling at 5.20 m
     0:00:00: Tank T5 is filling at 1.00 m
     0:00:00: Tank T2 is filling at 0.50 m
     0:00:00: Tank T4 is filling at 2.51 m
   
   
  Hydraulic Status:
  -----------------------------------------------------------------------
     0:00:00: Balanced after 4 trials
     0:00:00: Reservoir R1 is emptying
     0:00:00: Tank T3 is filling at 3.00 m
     0:00:00: Tank T1 is emptying at 3.03 m
     0:00:00: Tank T7 is filling at 2.49 m
     0:00:00: Tank T6 is filling at 5.19 m
     0:00:00: Tank T5 is filling at 1.00 m
     0:00:00: Tank T2 is filling at 0.50 m
     0:00:00: Tank T4 is filling at 2.50 m
   
   
  Hydraulic Status:
  -----------------------------------------------------------------------
     0:00:00: Balanced after 4 trials
     0:00:00: Reservoir R1 is emptying
     0:00:00: Tank T3 is filling at 2.99 m
     0:00:00: Tank T1 is emptying at 3.01 m
     0:00:00: Tank T7 is filling at 2.50 m
     0:00:00: Tank T6 is filling at 5.20 m
     0:00:00: Tank T5 is filling at 1.00 m
     0:00:00: Tank T2 is filling at 0.50 m
     0:00:00: Tank T4 is filling at 2.51 m
   
   
  Hydraulic Status:
  -----------------------------------------------------------------------
     0:00:00: Balanced after 4 trials
     0:00:00: Reservoir R1 is emptying
     0:00:00: Tank T3 is filling at 3.01 m
     0:00:00: Tank T1 is emptying at 3.00 m
     0:00:00: Tank T7 is filling at 2.49 m
     0:00:00: Tank T6 is filling at 5.19 m
     0:00:00: Tank T5 is filling at 1.00 m
     0:00:00: Tank T2 is filling at 0.50 m
     0:00:00: Tank T4 is filling at 2.49 m
   
   
  Hydraulic Status:
  -----------------------------------------------------------------------
     0:00:00: Balanced after 4 trials
     0:00:00: Reservoir R1 is emptying
     0:00:00: Tank T3 is filling at 3.00 m
     0:00:00: Tank T1 is emptying at 3.00 m
     0:00:00: Tank T7 is filling at 2.50 m
     0:00:00: Tank T6 is filling at 5.23 m
     0:00:00: Tank T5 is filling at 1.00 m
     0:00:00: Tank T2 is filling at 0.50 m
     0:00:00: Tank T4 is filling at 2.48 m
   
   
  Hydraulic Status:
  -----------------------------------------------------------------------
     0:00:00: Balanced after 4 trials
     0:00:00: Reservoir R1 is emptying
     0:00:00: Tank T3 is filling at 3.01 m
     0:00:00: Tank T1 is emptying at 3.02 m
     0:00:00: Tank T7 is filling at 2.52 m
     0:00:00: Tank T6 is filling at 5.18 m
     0:00:00: Tank T5 is filling at 0.99 m
     0:00:00: Tank T2 is filling at 0.50 m
     0:00:00: Tank T4 is filling at 2.50 m
   
   
  Hydraulic Status:
  -----------------------------------------------------------------------
     0:00:00: Balanced after 4 trials
     0:00:00: Reservoir R1 is emptying
     0:00:00: Tank T3 is filling at 2.99 m
     0:00:00: Tank T1 is emptying at 3.02 m
     0:00:00: Tank T7 is filling at 2.50 m
     0:00:00: Tank T6 is filling at 5.23 m
     0:00:00: Tank T5 is filling at 1.00 m
     0:00:00: Tank T2 is filling at 0.50 m
     0:00:00: Tank T4 is filling at 2.51 m
   
   
  Hydraulic Status:
  -----------------------------------------------------------------------
     0:00:00: Balanced after 4 trials
     0:00:00: Reservoir R1 is emptying
     0:00:00: Tank T3 is filling at 3.00 m
     0:00:00: Tank T1 is emptying at 2.99 m
     0:00:00: Tank T7 is filling at 2.49 m
     0:00:00: Tank T6 is filling at 5.18 m
     0:00:00: Tank T5 is filling at 1.00 m
     0:00:00: Tank T2 is filling at 0.50 m
     0:00:00: Tank T4 is filling at 2.49 m
   
   
  Hydraulic Status:
  -----------------------------------------------------------------------
     0:00:00: Balanced after 4 trials
     0:00:00: Reservoir R1 is emptying
     0:00:00: Tank T3 is filling at 3.01 m
     0:00:00: Tank T1 is emptying at 2.98 m
     0:00:00: Tank T7 is filling at 2.49 m
     0:00:00: Tank T6 is filling at 5.21 m
     0:00:00: Tank T5 is filling at 1.00 m
     0:00:00: Tank T2 is filling at 0.50 m
     0:00:00: Tank T4 is filling at 2.50 m
   
   
  Hydraulic Status:
  -----------------------------------------------------------------------
     0:00:00: Balanced after 4 trials
     0:00:00: Reservoir R1 is emptying
     0:00:00: Tank T3 is filling at 3.00 m
     0:00:00: Tank T1 is emptying at 2.99 m
     0:00:00: Tank T7 is filling at 2.50 m
     0:00:00: Tank T6 is filling at 5.16 m
     0:00:00: Tank T5 is filling at 1.00 m
     0:00:00: Tank T2 is filling at 0.50 m
     0:00:00: Tank T4 is filling at 2.49 m
   
   
  Hydraulic Status:
  -----------------------------------------------------------------------
     0:00:00: Balanced after 4 trials
     0:00:00: Reservoir R1 is emptying
     0:00:00: Tank T3 is filling at 3.02 m
     0:00:00: Tank T1 is emptying at 3.01 m
     0:00:00: Tank T7 is filling at 2.50 m
     0:00:00: Tank T6 is filling at 5.21 m
     0:00:00: Tank T5 is filling at 1.00 m
     0:00:00: Tank T2 is filling at 0.50 m
     0:00:00: Tank T4 is filling at 2.51 m
   
   
  Hydraulic Status:
  -----------------------------------------------------------------------
     0:00:00: Balanced after 4 trials
     0:00:00: Reservoir R1 is emptying
     0:00:00: Tank T3 is filling at 2.98 m
     0:00:00: Tank T1 is emptying at 2.99 m
     0:00:00: Tank T7 is filling at 2.50 m
     0:00:00: Tank T6 is filling at 5.20 m
     0:00:00: Tank T5 is filling at 1.00 m
     0:00:00: Tank T2 is filling at 0.50 m
     0:00:00: Tank T4 is filling at 2.51 m
   
   
  Hydraulic Status:
  -----------------------------------------------------------------------
     0:00:00: Balanced after 4 trials
     0:00:00: Reservoir R1 is emptying
     0:00:00: Tank T3 is filling at 2.99 m
     0:00:00: Tank T1 is emptying at 2.99 m
     0:00:00: Tank T7 is filling at 2.48 m
     0:00:00: Tank T6 is filling at 5.21 m
     0:00:00: Tank T5 is filling at 0.99 m
     0:00:00: Tank T2 is filling at 0.50 m
     0:00:00: Tank T4 is filling at 2.50 m
   
   
  Hydraulic Status:
  -----------------------------------------------------------------------
     0:00:00: Balanced after 4 trials
     0:00:00: Reservoir R1 is emptying
     0:00:00: Tank T3 is filling at 3.00 m
     0:00:00: Tank T1 is emptying at 2.99 m
     0:00:00: Tank T7 is filling at 2.52 m
     0:00:00: Tank T6 is filling at 5.17 m
     0:00:00: Tank T5 is filling at 1.00 m
     0:00:00: Tank T2 is filling at 0.50 m
     0:00:00: Tank T4 is filling at 2.50 m
   
   
  Hydraulic Status:
  -----------------------------------------------------------------------
     0:00:00: Balanced after 4 trials
     0:00:00: Reservoir R1 is emptying
     0:00:00: Tank T3 is filling at 2.99 m
     0:00:00: Tank T1 is emptying at 3.01 m
     0:00:00: Tank T7 is filling at 2.50 m
     0:00:00: Tank T6 is filling at 5.24 m
     0:00:00: Tank T5 is filling at 1.00 m
     0:00:00: Tank T2 is filling at 0.50 m
     0:00:00: Tank T4 is filling at 2.49 m
   
   
  Hydraulic Status:
  -----------------------------------------------------------------------
     0:00:00: Balanced after 4 trials
     0:00:00: Reservoir R1 is emptying
     0:00:00: Tank T3 is filling at 2.99 m
     0:00:00: Tank T1 is emptying at 3.00 m
     0:00:00: Tank T7 is filling at 2.50 m
     0:00:00: Tank T6 is filling at 5.18 m
     0:00:00: Tank T5 is filling at 1.00 m
     0:00:00: Tank T2 is filling at 0.50 m
     0:00:00: Tank T4 is filling at 2.49 m
   
   
  Hydraulic Status:
  -----------------------------------------------------------------------
     0:00:00: Balanced after 4 trials
     0:00:00: Reservoir R1 is emptying
     0:00:00: Tank T3 is filling at 3.02 m
     0:00:00: Tank T1 is emptying at 3.00 m
     0:00:00: Tank T7 is filling at 2.50 m
     0:00:00: Tank T6 is filling at 5.21 m
     0:00:00: Tank T5 is filling at 1.00 m
     0:00:00: Tank T2 is filling at 0.50 m
     0:00:00: Tank T4 is filling at 2.50 m
   
   
  Hydraulic Status:
  -----------------------------------------------------------------------
     0:00:00: Balanced after 4 trials
     0:00:00: Reservoir R1 is emptying
     0:00:00: Tank T3 is filling at 3.01 m
     0:00:00: Tank T1 is emptying at 3.00 m
     0:00:00: Tank T7 is filling at 2.51 m
     0:00:00: Tank T6 is filling at 5.16 m
     0:00:00: Tank T5 is filling at 1.00 m
     0:00:00: Tank T2 is filling at 0.50 m
     0:00:00: Tank T4 is filling at 2.51 m
   
   
  Hydraulic Status:
  -----------------------------------------------------------------------
     0:00:00: Balanced after 4 trials
     0:00:00: Reservoir R1 is emptying
     0:00:00: Tank T3 is filling at 3.01 m
     0:00:00: Tank T1 is emptying at 3.00 m
     0:00:00: Tank T7 is filling at 2.49 m
     0:00:00: Tank T6 is filling at 5.23 m
     0:00:00: Tank T5 is filling at 1.00 m
     0:00:00: Tank T2 is filling at 0.50 m
     0:00:00: Tank T4 is filling at 2.50 m
   
   
  Hydraulic Status:
  -----------------------------------------------------------------------
     0:00:00: Balanced after 4 trials
     0:00:00: Reservoir R1 is emptying
     0:00:00: Tank T3 is filling at 2.99 m
     0:00:00: Tank T1 is emptying at 2.99 m
     0:00:00: Tank T7 is filling at 2.50 m
     0:00:00: Tank T6 is filling at 5.21 m
     0:00:00: Tank T5 is filling at 1.00 m
     0:00:00: Tank T2 is filling at 0.50 m
     0:00:00: Tank T4 is filling at 2.50 m
   
   
  Hydraulic Status:
  -----------------------------------------------------------------------
     0:00:00: Balanced after 4 trials
     0:00:00: Reservoir R1 is emptying
     0:00:00: Tank T3 is filling at 3.01 m
     0:00:00: Tank T1 is emptying at 3.01 m
     0:00:00: Tank T7 is filling at 2.50 m
     0:00:00: Tank T6 is filling at 5.19 m
     0:00:00: Tank T5 is filling at 1.00 m
     0:00:00: Tank T2 is filling at 0.50 m
     0:00:00: Tank T4 is filling at 2.48 m
   
   
  Hydraulic Status:
  -----------------------------------------------------------------------
     0:00:00: Balanced after 4 trials
     0:00:00: Reservoir R1 is emptying
     0:00:00: Tank T3 is filling at 3.00 m
     0:00:00: Tank T1 is emptying at 3.01 m
     0:00:00: Tank T7 is filling at 2.52 m
     0:00:00: Tank T6 is filling at 5.21 m
     0:00:00: Tank T5 is filling at 1.00 m
     0:00:00: Tank T2 is filling at 0.50 m
     0:00:00: Tank T4 is filling at 2.51 m
   
   
  Hydraulic Status:
  -----------------------------------------------------------------------
     0:00:00: Balanced after 4 trials
     0:00:00: Reservoir R1 is emptying
     0:00:00: Tank T3 is filling at 3.00 m
     0:00:00: Tank T1 is emptying at 3.00 m
     0:00:00: Tank T7 is filling at 2.50 m
     0:00:00: Tank T6 is filling at 5.21 m
     0:00:00: Tank T5 is filling at 1.00 m
     0:00:00: Tank T2 is filling at 0.50 m
     0:00:00: Tank T4 is filling at 2.51 m
   
   
  Hydraulic Status:
  -----------------------------------------------------------------------
     0:00:00: Balanced after 4 trials
     0:00:00: Reservoir R1 is emptying
     0:00:00: Tank T3 is filling at 2.99 m
     0:00:00: Tank T1 is emptying at 2.98 m
     0:00:00: Tank T7 is filling at 2.49 m
     0:00:00: Tank T6 is filling at 5.21 m
     0:00:00: Tank T5 is filling at 1.00 m
     0:00:00: Tank T2 is filling at 0.50 m
     0:00:00: Tank T4 is filling at 2.49 m
   
   
  Hydraulic Status:
  -----------------------------------------------------------------------
     0:00:00: Balanced after 4 trials
     0:00:00: Reservoir R1 is emptying
     0:00:00: Tank T3 is filling at 3.02 m
     0:00:00: Tank T1 is emptying at 3.00 m
     0:00:00: Tank T7 is filling at 2.51 m
     0:00:00: Tank T6 is filling at 5.20 m
     0:00:00: Tank T5 is filling at 1.00 m
     0:00:00: Tank T2 is filling at 0.50 m
     0:00:00: Tank T4 is filling at 2.50 m
   
   
  Hydraulic Status:
  -----------------------------------------------------------------------
     0:00:00: Balanced after 4 trials
     0:00:00: Reservoir R1 is emptying
     0:00:00: Tank T3 is filling at 3.01 m
     0:00:00: Tank T1 is emptying at 3.00 m
     0:00:00: Tank T7 is filling at 2.49 m
     0:00:00: Tank T6 is filling at 5.17 m
     0:00:00: Tank T5 is filling at 1.00 m
     0:00:00: Tank T2 is filling at 0.50 m
     0:00:00: Tank T4 is filling at 2.52 m
   
   
  Hydraulic Status:
  -----------------------------------------------------------------------
     0:00:00: Balanced after 4 trials
     0:00:00: Reservoir R1 is emptying
     0:00:00: Tank T3 is filling at 2.99 m
     0:00:00: Tank T1 is emptying at 2.99 m
     0:00:00: Tank T7 is filling at 2.49 m
     0:00:00: Tank T6 is filling at 5.21 m
     0:00:00: Tank T5 is filling at 1.00 m
     0:00:00: Tank T2 is filling at 0.50 m
     0:00:00: Tank T4 is filling at 2.49 m
   
   
  Hydraulic Status:
  -----------------------------------------------------------------------
     0:00:00: Balanced after 4 trials
     0:00:00: Reservoir R1 is emptying
     0:00:00: Tank T3 is filling at 2.99 m
     0:00:00: Tank T1 is emptying at 3.00 m
     0:00:00: Tank T7 is filling at 2.51 m
     0:00:00: Tank T6 is filling at 5.21 m
     0:00:00: Tank T5 is filling at 1.00 m
     0:00:00: Tank T2 is filling at 0.50 m
     0:00:00: Tank T4 is filling at 2.49 m
   
   
  Hydraulic Status:
  -----------------------------------------------------------------------
     0:00:00: Balanced after 4 trials
     0:00:00: Reservoir R1 is emptying
     0:00:00: Tank T3 is filling at 3.00 m
     0:00:00: Tank T1 is emptying at 2.99 m
     0:00:00: Tank T7 is filling at 2.51 m
     0:00:00: Tank T6 is filling at 5.19 m
     0:00:00: Tank T5 is filling at 1.00 m
     0:00:00: Tank T2 is filling at 0.50 m
     0:00:00: Tank T4 is filling at 2.50 m
   
   
  Hydraulic Status:
  -----------------------------------------------------------------------
     0:00:00: Balanced after 4 trials
     0:00:00: Reservoir R1 is emptying
     0:00:00: Tank T3 is filling at 3.00 m
     0:00:00: Tank T1 is emptying at 3.00 m
     0:00:00: Tank T7 is filling at 2.51 m
     0:00:00: Tank T6 is filling at 5.21 m
     0:00:00: Tank T5 is filling at 1.00 m
     0:00:00: Tank T2 is filling at 0.50 m
     0:00:00: Tank T4 is filling at 2.49 m
   
   
  Hydraulic Status:
  -----------------------------------------------------------------------
     0:00:00: Balanced after 4 trials
     0:00:00: Reservoir R1 is emptying
     0:00:00: Tank T3 is filling at 3.02 m
     0:00:00: Tank T1 is emptying at 2.99 m
     0:00:00: Tank T7 is filling at 2.52 m
     0:00:00: Tank T6 is filling at 5.19 m
     0:00:00: Tank T5 is filling at 1.00 m
     0:00:00: Tank T2 is filling at 0.50 m
     0:00:00: Tank T4 is filling at 2.50 m
   
   
  Hydraulic Status:
  -----------------------------------------------------------------------
     0:00:00: Balanced after 4 trials
     0:00:00: Reservoir R1 is emptying
     0:00:00: Tank T3 is filling at 3.00 m
     0:00:00: Tank T1 is emptying at 2.98 m
     0:00:00: Tank T7 is filling at 2.51 m
     0:00:00: Tank T6 is filling at 5.21 m
     0:00:00: Tank T5 is filling at 1.00 m
     0:00:00: Tank T2 is filling at 0.50 m
     0:00:00: Tank T4 is filling at 2.51 m
   
   
  Hydraulic Status:
  -----------------------------------------------------------------------
     0:00:00: Balanced after 4 trials
     0:00:00: Reservoir R1 is emptying
     0:00:00: Tank T3 is filling at 2.99 m
     0:00:00: Tank T1 is emptying at 3.00 m
     0:00:00: Tank T7 is filling at 2.50 m
     0:00:00: Tank T6 is filling at 5.19 m
     0:00:00: Tank T5 is filling at 1.01 m
     0:00:00: Tank T2 is filling at 0.50 m
     0:00:00: Tank T4 is filling at 2.50 m
   
   
  Hydraulic Status:
  -----------------------------------------------------------------------
     0:00:00: Balanced after 4 trials
     0:00:00: Reservoir R1 is emptying
     0:00:00: Tank T3 is filling at 3.00 m
     0:00:00: Tank T1 is emptying at 2.99 m
     0:00:00: Tank T7 is filling at 2.49 m
     0:00:00: Tank T6 is filling at 5.18 m
     0:00:00: Tank T5 is filling at 1.00 m
     0:00:00: Tank T2 is filling at 0.50 m
     0:00:00: Tank T4 is filling at 2.50 m
   
   
  Hydraulic Status:
  -----------------------------------------------------------------------
     0:00:00: Balanced after 4 trials
     0:00:00: Reservoir R1 is emptying
     0:00:00: Tank T3 is filling at 2.99 m
     0:00:00: Tank T1 is emptying at 2.98 m
     0:00:00: Tank T7 is filling at 2.49 m
     0:00:00: Tank T6 is filling at 5.20 m
     0:00:00: Tank T5 is filling at 1.00 m
     0:00:00: Tank T2 is filling at 0.50 m
     0:00:00: Tank T4 is filling at 2.50 m
   
   
  Hydraulic Status:
  -----------------------------------------------------------------------
     0:00:00: Balanced after 4 trials
     0:00:00: Reservoir R1 is emptying
     0:00:00: Tank T3 is filling at 3.00 m
     0:00:00: Tank T1 is emptying at 3.01 m
     0:00:00: Tank T7 is filling at 2.48 m
     0:00:00: Tank T6 is filling at 5.22 m
     0:00:00: Tank T5 is filling at 1.00 m
     0:00:00: Tank T2 is filling at 0.50 m
     0:00:00: Tank T4 is filling at 2.50 m
   
   
  Hydraulic Status:
  -----------------------------------------------------------------------
     0:00:00: Balanced after 4 trials
     0:00:00: Reservoir R1 is emptying
     0:00:00: Tank T3 is filling at 3.01 m
     0:00:00: Tank T1 is emptying at 2.99 m
     0:00:00: Tank T7 is filling at 2.50 m
     0:00:00: Tank T6 is filling at 5.21 m
     0:00:00: Tank T5 is filling at 1.00 m
     0:00:00: Tank T2 is filling at 0.50 m
     0:00:00: Tank T4 is filling at 2.51 m
   
   
  Hydraulic Status:
  -----------------------------------------------------------------------
     0:00:00: Balanced after 4 trials
     0:00:00: Reservoir R1 is emptying
     0:00:00: Tank T3 is filling at 3.02 m
     0:00:00: Tank T1 is emptying at 3.00 m
     0:00:00: Tank T7 is filling at 2.47 m
     0:00:00: Tank T6 is filling at 5.19 m
     0:00:00: Tank T5 is filling at 1.01 m
     0:00:00: Tank T2 is filling at 0.50 m
     0:00:00: Tank T4 is filling at 2.49 m
   
   
  Hydraulic Status:
  -----------------------------------------------------------------------
     0:00:00: Balanced after 4 trials
     0:00:00: Reservoir R1 is emptying
     0:00:00: Tank T3 is filling at 3.00 m
     0:00:00: Tank T1 is emptying at 3.01 m
     0:00:00: Tank T7 is filling at 2.50 m
     0:00:00: Tank T6 is filling at 5.20 m
     0:00:00: Tank T5 is filling at 1.00 m
     0:00:00: Tank T2 is filling at 0.50 m
     0:00:00: Tank T4 is filling at 2.49 m
   
   
  Hydraulic Status:
  -----------------------------------------------------------------------
     0:00:00: Balanced after 4 trials
     0:00:00: Reservoir R1 is emptying
     0:00:00: Tank T3 is filling at 3.01 m
     0:00:00: Tank T1 is emptying at 3.01 m
     0:00:00: Tank T7 is filling at 2.51 m
     0:00:00: Tank T6 is filling at 5.21 m
     0:00:00: Tank T5 is filling at 1.00 m
     0:00:00: Tank T2 is filling at 0.50 m
     0:00:00: Tank T4 is filling at 2.51 m
   
   
  Hydraulic Status:
  -----------------------------------------------------------------------
     0:00:00: Balanced after 4 trials
     0:00:00: Reservoir R1 is emptying
     0:00:00: Tank T3 is filling at 2.99 m
     0:00:00: Tank T1 is emptying at 3.02 m
     0:00:00: Tank T7 is filling at 2.50 m
     0:00:00: Tank T6 is filling at 5.17 m
     0:00:00: Tank T5 is filling at 1.00 m
     0:00:00: Tank T2 is filling at 0.50 m
     0:00:00: Tank T4 is filling at 2.48 m
   
   
  Hydraulic Status:
  -----------------------------------------------------------------------
     0:00:00: Balanced after 4 trials
     0:00:00: Reservoir R1 is emptying
     0:00:00: Tank T3 is filling at 3.02 m
     0:00:00: Tank T1 is emptying at 2.99 m
     0:00:00: Tank T7 is filling at 2.51 m
     0:00:00: Tank T6 is filling at 5.20 m
     0:00:00: Tank T5 is filling at 1.00 m
     0:00:00: Tank T2 is filling at 0.50 m
     0:00:00: Tank T4 is filling at 2.50 m
   
   
  Hydraulic Status:
  -----------------------------------------------------------------------
     0:00:00: Balanced after 4 trials
     0:00:00: Reservoir R1 is emptying
     0:00:00: Tank T3 is filling at 2.99 m
     0:00:00: Tank T1 is emptying at 2.99 m
     0:00:00: Tank T7 is filling at 2.50 m
     0:00:00: Tank T6 is filling at 5.22 m
     0:00:00: Tank T5 is filling at 1.00 m
     0:00:00: Tank T2 is filling at 0.50 m
     0:00:00: Tank T4 is filling at 2.50 m
   
   
  Hydraulic Status:
  -----------------------------------------------------------------------
     0:00:00: Balanced after 4 trials
     0:00:00: Reservoir R1 is emptying
     0:00:00: Tank T3 is filling at 3.00 m
     0:00:00: Tank T1 is emptying at 2.99 m
     0:00:00: Tank T7 is filling at 2.49 m
     0:00:00: Tank T6 is filling at 5.19 m
     0:00:00: Tank T5 is filling at 1.00 m
     0:00:00: Tank T2 is filling at 0.50 m
     0:00:00: Tank T4 is filling at 2.51 m
   
   
  Hydraulic Status:
  -----------------------------------------------------------------------
     0:00:00: Balanced after 4 trials
     0:00:00: Reservoir R1 is emptying
     0:00:00: Tank T3 is filling at 2.98 m
     0:00:00: Tank T1 is emptying at 2.99 m
     0:00:00: Tank T7 is filling at 2.51 m
     0:00:00: Tank T6 is filling at 5.20 m
     0:00:00: Tank T5 is filling at 1.00 m
     0:00:00: Tank T2 is filling at 0.50 m
     0:00:00: Tank T4 is filling at 2.51 m
   
   
  Hydraulic Status:
  -----------------------------------------------------------------------
     0:00:00: Balanced after 4 trials
     0:00:00: Reservoir R1 is emptying
     0:00:00: Tank T3 is filling at 3.01 m
     0:00:00: Tank T1 is emptying at 2.99 m
     0:00:00: Tank T7 is filling at 2.50 m
     0:00:00: Tank T6 is filling at 5.18 m
     0:00:00: Tank T5 is filling at 1.00 m
     0:00:00: Tank T2 is filling at 0.50 m
     0:00:00: Tank T4 is filling at 2.51 m
   
   
  Hydraulic Status:
  -----------------------------------------------------------------------
     0:00:00: Balanced after 4 trials
     0:00:00: Reservoir R1 is emptying
     0:00:00: Tank T3 is filling at 3.02 m
     0:00:00: Tank T1 is emptying at 3.01 m
     0:00:00: Tank T7 is filling at 2.49 m
     0:00:00: Tank T6 is filling at 5.16 m
     0:00:00: Tank T5 is filling at 1.00 m
     0:00:00: Tank T2 is filling at 0.50 m
     0:00:00: Tank T4 is filling at 2.50 m
   
   
  Hydraulic Status:
  -----------------------------------------------------------------------
     0:00:00: Balanced after 4 trials
     0:00:00: Reservoir R1 is emptying
     0:00:00: Tank T3 is filling at 3.02 m
     0:00:00: Tank T1 is emptying at 3.00 m
     0:00:00: Tank T7 is filling at 2.48 m
     0:00:00: Tank T6 is filling at 5.21 m
     0:00:00: Tank T5 is filling at 1.00 m
     0:00:00: Tank T2 is filling at 0.50 m
     0:00:00: Tank T4 is filling at 2.50 m
   
   
  Hydraulic Status:
  -----------------------------------------------------------------------
     0:00:00: Balanced after 4 trials
     0:00:00: Reservoir R1 is emptying
     0:00:00: Tank T3 is filling at 3.00 m
     0:00:00: Tank T1 is emptying at 3.00 m
     0:00:00: Tank T7 is filling at 2.49 m
     0:00:00: Tank T6 is filling at 5.19 m
     0:00:00: Tank T5 is filling at 1.00 m
     0:00:00: Tank T2 is filling at 0.50 m
     0:00:00: Tank T4 is filling at 2.50 m
   
   
  Hydraulic Status:
  -----------------------------------------------------------------------
     0:00:00: Balanced after 4 trials
     0:00:00: Reservoir R1 is emptying
     0:00:00: Tank T3 is filling at 3.01 m
     0:00:00: Tank T1 is emptying at 3.00 m
     0:00:00: Tank T7 is filling at 2.50 m
     0:00:00: Tank T6 is filling at 5.22 m
     0:00:00: Tank T5 is filling at 1.00 m
     0:00:00: Tank T2 is filling at 0.50 m
     0:00:00: Tank T4 is filling at 2.52 m
   
   
  Hydraulic Status:
  -----------------------------------------------------------------------
     0:00:00: Balanced after 4 trials
     0:00:00: Reservoir R1 is emptying
     0:00:00: Tank T3 is filling at 3.01 m
     0:00:00: Tank T1 is emptying at 2.98 m
     0:00:00: Tank T7 is filling at 2.49 m
     0:00:00: Tank T6 is filling at 5.20 m
     0:00:00: Tank T5 is filling at 1.01 m
     0:00:00: Tank T2 is filling at 0.50 m
     0:00:00: Tank T4 is filling at 2.50 m
   
   
  Hydraulic Status:
  -----------------------------------------------------------------------
     0:00:00: Balanced after 4 trials
     0:00:00: Reservoir R1 is emptying
     0:00:00: Tank T3 is filling at 3.00 m
     0:00:00: Tank T1 is emptying at 3.03 m
     0:00:00: Tank T7 is filling at 2.50 m
     0:00:00: Tank T6 is filling at 5.22 m
     0:00:00: Tank T5 is filling at 1.00 m
     0:00:00: Tank T2 is filling at 0.50 m
     0:00:00: Tank T4 is filling at 2.50 m
   
   
  Hydraulic Status:
  -----------------------------------------------------------------------
     0:00:00: Balanced after 4 trials
     0:00:00: Reservoir R1 is emptying
     0:00:00: Tank T3 is filling at 3.00 m
     0:00:00: Tank T1 is emptying at 3.01 m
     0:00:00: Tank T7 is filling at 2.50 m
     0:00:00: Tank T6 is filling at 5.22 m
     0:00:00: Tank T5 is filling at 1.01 m
     0:00:00: Tank T2 is filling at 0.50 m
     0:00:00: Tank T4 is filling at 2.51 m
   
   
  Hydraulic Status:
  -----------------------------------------------------------------------
     0:00:00: Balanced after 4 trials
     0:00:00: Reservoir R1 is emptying
     0:00:00: Tank T3 is filling at 2.99 m
     0:00:00: Tank T1 is emptying at 3.01 m
     0:00:00: Tank T7 is filling at 2.49 m
     0:00:00: Tank T6 is filling at 5.24 m
     0:00:00: Tank T5 is filling at 1.00 m
     0:00:00: Tank T2 is filling at 0.50 m
     0:00:00: Tank T4 is filling at 2.52 m
   
   
  Hydraulic Status:
  -----------------------------------------------------------------------
     0:00:00: Balanced after 4 trials
     0:00:00: Reservoir R1 is emptying
     0:00:00: Tank T3 is filling at 3.02 m
     0:00:00: Tank T1 is emptying at 3.00 m
     0:00:00: Tank T7 is filling at 2.49 m
     0:00:00: Tank T6 is filling at 5.21 m
     0:00:00: Tank T5 is filling at 1.00 m
     0:00:00: Tank T2 is filling at 0.50 m
     0:00:00: Tank T4 is filling at 2.50 m
   
   
  Hydraulic Status:
  -----------------------------------------------------------------------
     0:00:00: Balanced after 4 trials
     0:00:00: Reservoir R1 is emptying
     0:00:00: Tank T3 is filling at 3.00 m
     0:00:00: Tank T1 is emptying at 3.01 m
     0:00:00: Tank T7 is filling at 2.52 m
     0:00:00: Tank T6 is filling at 5.19 m
     0:00:00: Tank T5 is filling at 1.00 m
     0:00:00: Tank T2 is filling at 0.50 m
     0:00:00: Tank T4 is filling at 2.49 m
   
   
  Hydraulic Status:
  -----------------------------------------------------------------------
     0:00:00: Balanced after 4 trials
     0:00:00: Reservoir R1 is emptying
     0:00:00: Tank T3 is filling at 3.00 m
     0:00:00: Tank T1 is emptying at 3.02 m
     0:00:00: Tank T7 is filling at 2.51 m
     0:00:00: Tank T6 is filling at 5.24 m
     0:00:00: Tank T5 is filling at 1.00 m
     0:00:00: Tank T2 is filling at 0.50 m
     0:00:00: Tank T4 is filling at 2.50 m
   
   
  Hydraulic Status:
  -----------------------------------------------------------------------
     0:00:00: Balanced after 4 trials
     0:00:00: Reservoir R1 is emptying
     0:00:00: Tank T3 is filling at 3.01 m
     0:00:00: Tank T1 is emptying at 2.99 m
     0:00:00: Tank T7 is filling at 2.51 m
     0:00:00: Tank T6 is filling at 5.23 m
     0:00:00: Tank T5 is filling at 1.00 m
     0:00:00: Tank T2 is filling at 0.50 m
     0:00:00: Tank T4 is filling at 2.50 m
   
   
  Hydraulic Status:
  -----------------------------------------------------------------------
     0:00:00: Balanced after 4 trials
     0:00:00: Reservoir R1 is emptying
     0:00:00: Tank T3 is filling at 3.00 m
     0:00:00: Tank T1 is emptying at 3.02 m
     0:00:00: Tank T7 is filling at 2.50 m
     0:00:00: Tank T6 is filling at 5.17 m
     0:00:00: Tank T5 is filling at 1.00 m
     0:00:00: Tank T2 is filling at 0.50 m
     0:00:00: Tank T4 is filling at 2.50 m
   
   
  Hydraulic Status:
  -----------------------------------------------------------------------
     0:00:00: Balanced after 4 trials
     0:00:00: Reservoir R1 is emptying
     0:00:00: Tank T3 is filling at 2.98 m
     0:00:00: Tank T1 is emptying at 2.99 m
     0:00:00: Tank T7 is filling at 2.48 m
     0:00:00: Tank T6 is filling at 5.19 m
     0:00:00: Tank T5 is filling at 1.00 m
     0:00:00: Tank T2 is filling at 0.50 m
     0:00:00: Tank T4 is filling at 2.50 m
   
   
  Hydraulic Status:
  -----------------------------------------------------------------------
     0:00:00: Balanced after 4 trials
     0:00:00: Reservoir R1 is emptying
     0:00:00: Tank T3 is filling at 3.00 m
     0:00:00: Tank T1 is emptying at 2.98 m
     0:00:00: Tank T7 is filling at 2.50 m
     0:00:00: Tank T6 is filling at 5.16 m
     0:00:00: Tank T5 is filling at 1.00 m
     0:00:00: Tank T2 is filling at 0.50 m
     0:00:00: Tank T4 is filling at 2.50 m
   
   
  Hydraulic Status:
  -----------------------------------------------------------------------
     0:00:00: Balanced after 4 trials
     0:00:00: Reservoir R1 is emptying
     0:00:00: Tank T3 is filling at 2.98 m
     0:00:00: Tank T1 is emptying at 2.98 m
     0:00:00: Tank T7 is filling at 2.50 m
     0:00:00: Tank T6 is filling at 5.21 m
     0:00:00: Tank T5 is filling at 1.00 m
     0:00:00: Tank T2 is filling at 0.50 m
     0:00:00: Tank T4 is filling at 2.47 m
   
   
  Hydraulic Status:
  -----------------------------------------------------------------------
     0:00:00: Balanced after 4 trials
     0:00:00: Reservoir R1 is emptying
     0:00:00: Tank T3 is filling at 2.99 m
     0:00:00: Tank T1 is emptying at 2.99 m
     0:00:00: Tank T7 is filling at 2.49 m
     0:00:00: Tank T6 is filling at 5.16 m
     0:00:00: Tank T5 is filling at 1.00 m
     0:00:00: Tank T2 is filling at 0.50 m
     0:00:00: Tank T4 is filling at 2.50 m
   
   
  Hydraulic Status:
  -----------------------------------------------------------------------
     0:00:00: Balanced after 4 trials
     0:00:00: Reservoir R1 is emptying
     0:00:00: Tank T3 is filling at 2.99 m
     0:00:00: Tank T1 is emptying at 2.98 m
     0:00:00: Tank T7 is filling at 2.51 m
     0:00:00: Tank T6 is filling at 5.21 m
     0:00:00: Tank T5 is filling at 1.00 m
     0:00:00: Tank T2 is filling at 0.50 m
     0:00:00: Tank T4 is filling at 2.53 m
   
   
  Hydraulic Status:
  -----------------------------------------------------------------------
     0:00:00: Balanced after 4 trials
     0:00:00: Reservoir R1 is emptying
     0:00:00: Tank T3 is filling at 3.01 m
     0:00:00: Tank T1 is emptying at 2.99 m
     0:00:00: Tank T7 is filling at 2.50 m
     0:00:00: Tank T6 is filling at 5.18 m
     0:00:00: Tank T5 is filling at 1.00 m
     0:00:00: Tank T2 is filling at 0.50 m
     0:00:00: Tank T4 is filling at 2.51 m
   
   
  Hydraulic Status:
  -----------------------------------------------------------------------
     0:00:00: Balanced after 4 trials
     0:00:00: Reservoir R1 is emptying
     0:00:00: Tank T3 is filling at 3.02 m
     0:00:00: Tank T1 is emptying at 3.00 m
     0:00:00: Tank T7 is filling at 2.49 m
     0:00:00: Tank T6 is filling at 5.20 m
     0:00:00: Tank T5 is filling at 1.00 m
     0:00:00: Tank T2 is filling at 0.50 m
     0:00:00: Tank T4 is filling at 2.52 m
   
   
  Hydraulic Status:
  -----------------------------------------------------------------------
     0:00:00: Balanced after 4 trials
     0:00:00: Reservoir R1 is emptying
     0:00:00: Tank T3 is filling at 3.01 m
     0:00:00: Tank T1 is emptying at 3.01 m
     0:00:00: Tank T7 is filling at 2.49 m
     0:00:00: Tank T6 is filling at 5.20 m
     0:00:00: Tank T5 is filling at 1.00 m
     0:00:00: Tank T2 is filling at 0.50 m
     0:00:00: Tank T4 is filling at 2.49 m
   
   
  Hydraulic Status:
  -----------------------------------------------------------------------
     0:00:00: Balanced after 4 trials
     0:00:00: Reservoir R1 is emptying
     0:00:00: Tank T3 is filling at 3.00 m
     0:00:00: Tank T1 is emptying at 3.02 m
     0:00:00: Tank T7 is filling at 2.50 m
     0:00:00: Tank T6 is filling at 5.23 m
     0:00:00: Tank T5 is filling at 0.99 m
     0:00:00: Tank T2 is filling at 0.50 m
     0:00:00: Tank T4 is filling at 2.51 m
   
   
  Hydraulic Status:
  -----------------------------------------------------------------------
     0:00:00: Balanced after 4 trials
     0:00:00: Reservoir R1 is emptying
     0:00:00: Tank T3 is filling at 2.99 m
     0:00:00: Tank T1 is emptying at 3.00 m
     0:00:00: Tank T7 is filling at 2.50 m
     0:00:00: Tank T6 is filling at 5.19 m
     0:00:00: Tank T5 is filling at 1.00 m
     0:00:00: Tank T2 is filling at 0.50 m
     0:00:00: Tank T4 is filling at 2.47 m
   
   
  Hydraulic Status:
  -----------------------------------------------------------------------
     0:00:00: Balanced after 4 trials
     0:00:00: Reservoir R1 is emptying
     0:00:00: Tank T3 is filling at 3.00 m
     0:00:00: Tank T1 is emptying at 3.01 m
     0:00:00: Tank T7 is filling at 2.51 m
     0:00:00: Tank T6 is filling at 5.23 m
     0:00:00: Tank T5 is filling at 1.00 m
     0:00:00: Tank T2 is filling at 0.50 m
     0:00:00: Tank T4 is filling at 2.49 m
   
   
  Hydraulic Status:
  -----------------------------------------------------------------------
     0:00:00: Balanced after 4 trials
     0:00:00: Reservoir R1 is emptying
     0:00:00: Tank T3 is filling at 3.01 m
     0:00:00: Tank T1 is emptying at 3.00 m
     0:00:00: Tank T7 is filling at 2.50 m
     0:00:00: Tank T6 is filling at 5.18 m
     0:00:00: Tank T5 is filling at 1.01 m
     0:00:00: Tank T2 is filling at 0.50 m
     0:00:00: Tank T4 is filling at 2.51 m
   
   
  Hydraulic Status:
  -----------------------------------------------------------------------
     0:00:00: Balanced after 4 trials
     0:00:00: Reservoir R1 is emptying
     0:00:00: Tank T3 is filling at 3.01 m
     0:00:00: Tank T1 is emptying at 2.98 m
     0:00:00: Tank T7 is filling at 2.50 m
     0:00:00: Tank T6 is filling at 5.18 m
     0:00:00: Tank T5 is filling at 1.00 m
     0:00:00: Tank T2 is filling at 0.50 m
     0:00:00: Tank T4 is filling at 2.51 m
   
   
  Hydraulic Status:
  -----------------------------------------------------------------------
     0:00:00: Balanced after 4 trials
     0:00:00: Reservoir R1 is emptying
     0:00:00: Tank T3 is filling at 2.99 m
     0:00:00: Tank T1 is emptying at 2.99 m
     0:00:00: Tank T7 is filling at 2.48 m
     0:00:00: Tank T6 is filling at 5.20 m
     0:00:00: Tank T5 is filling at 1.00 m
     0:00:00: Tank T2 is filling at 0.50 m
     0:00:00: Tank T4 is filling at 2.50 m
   
   
  Hydraulic Status:
  -----------------------------------------------------------------------
     0:00:00: Balanced after 4 trials
     0:00:00: Reservoir R1 is emptying
     0:00:00: Tank T3 is filling at 2.99 m
     0:00:00: Tank T1 is emptying at 2.99 m
     0:00:00: Tank T7 is filling at 2.50 m
     0:00:00: Tank T6 is filling at 5.20 m
     0:00:00: Tank T5 is filling at 0.99 m
     0:00:00: Tank T2 is filling at 0.50 m
     0:00:00: Tank T4 is filling at 2.50 m
   
   
  Hydraulic Status:
  -----------------------------------------------------------------------
     0:00:00: Balanced after 4 trials
     0:00:00: Reservoir R1 is emptying
     0:00:00: Tank T3 is filling at 3.00 m
     0:00:00: Tank T1 is emptying at 2.98 m
     0:00:00: Tank T7 is filling at 2.50 m
     0:00:00: Tank T6 is filling at 5.20 m
     0:00:00: Tank T5 is filling at 0.99 m
     0:00:00: Tank T2 is filling at 0.50 m
     0:00:00: Tank T4 is filling at 2.49 m
   
   
  Hydraulic Status:
  -----------------------------------------------------------------------
     0:00:00: Balanced after 4 trials
     0:00:00: Reservoir R1 is emptying
     0:00:00: Tank T3 is filling at 3.02 m
     0:00:00: Tank T1 is emptying at 2.98 m
     0:00:00: Tank T7 is filling at 2.50 m
     0:00:00: Tank T6 is filling at 5.21 m
     0:00:00: Tank T5 is filling at 1.00 m
     0:00:00: Tank T2 is filling at 0.50 m
     0:00:00: Tank T4 is filling at 2.51 m
   
   
  Hydraulic Status:
  -----------------------------------------------------------------------
     0:00:00: Balanced after 4 trials
     0:00:00: Reservoir R1 is emptying
     0:00:00: Tank T3 is filling at 3.00 m
     0:00:00: Tank T1 is emptying at 2.98 m
     0:00:00: Tank T7 is filling at 2.50 m
     0:00:00: Tank T6 is filling at 5.23 m
     0:00:00: Tank T5 is filling at 1.01 m
     0:00:00: Tank T2 is filling at 0.50 m
     0:00:00: Tank T4 is filling at 2.51 m
   
   
  Hydraulic Status:
  -----------------------------------------------------------------------
     0:00:00: Balanced after 4 trials
     0:00:00: Reservoir R1 is emptying
     0:00:00: Tank T3 is filling at 3.01 m
     0:00:00: Tank T1 is emptying at 2.99 m
     0:00:00: Tank T7 is filling at 2.49 m
     0:00:00: Tank T6 is filling at 5.21 m
     0:00:00: Tank T5 is filling at 1.00 m
     0:00:00: Tank T2 is filling at 0.50 m
     0:00:00: Tank T4 is filling at 2.52 m
   
   
  Hydraulic Status:
  -----------------------------------------------------------------------
     0:00:00: Balanced after 4 trials
     0:00:00: Reservoir R1 is emptying
     0:00:00: Tank T3 is filling at 3.01 m
     0:00:00: Tank T1 is emptying at 3.00 m
     0:00:00: Tank T7 is filling at 2.50 m
     0:00:00: Tank T6 is filling at 5.19 m
     0:00:00: Tank T5 is filling at 1.01 m
     0:00:00: Tank T2 is filling at 0.50 m
     0:00:00: Tank T4 is filling at 2.49 m
   
   
  Hydraulic Status:
  -----------------------------------------------------------------------
     0:00:00: Balanced after 4 trials
     0:00:00: Reservoir R1 is emptying
     0:00:00: Tank T3 is filling at 3.00 m
     0:00:00: Tank T1 is emptying at 3.00 m
     0:00:00: Tank T7 is filling at 2.52 m
     0:00:00: Tank T6 is filling at 5.20 m
     0:00:00: Tank T5 is filling at 1.01 m
     0:00:00: Tank T2 is filling at 0.50 m
     0:00:00: Tank T4 is filling at 2.50 m
   
   
  Hydraulic Status:
  -----------------------------------------------------------------------
     0:00:00: Balanced after 4 trials
     0:00:00: Reservoir R1 is emptying
     0:00:00: Tank T3 is filling at 2.99 m
     0:00:00: Tank T1 is emptying at 3.01 m
     0:00:00: Tank T7 is filling at 2.48 m
     0:00:00: Tank T6 is filling at 5.18 m
     0:00:00: Tank T5 is filling at 1.00 m
     0:00:00: Tank T2 is filling at 0.50 m
     0:00:00: Tank T4 is filling at 2.49 m
   
   
  Hydraulic Status:
  -----------------------------------------------------------------------
     0:00:00: Balanced after 4 trials
     0:00:00: Reservoir R1 is emptying
     0:00:00: Tank T3 is filling at 3.01 m
     0:00:00: Tank T1 is emptying at 2.98 m
     0:00:00: Tank T7 is filling at 2.51 m
     0:00:00: Tank T6 is filling at 5.22 m
     0:00:00: Tank T5 is filling at 1.00 m
     0:00:00: Tank T2 is filling at 0.50 m
     0:00:00: Tank T4 is filling at 2.49 m
   
   
  Hydraulic Status:
  -----------------------------------------------------------------------
     0:00:00: Balanced after 4 trials
     0:00:00: Reservoir R1 is emptying
     0:00:00: Tank T3 is filling at 3.01 m
     0:00:00: Tank T1 is emptying at 2.99 m
     0:00:00: Tank T7 is filling at 2.51 m
     0:00:00: Tank T6 is filling at 5.21 m
     0:00:00: Tank T5 is filling at 1.00 m
     0:00:00: Tank T2 is filling at 0.50 m
     0:00:00: Tank T4 is filling at 2.50 m
   
   
  Hydraulic Status:
  -----------------------------------------------------------------------
     0:00:00: Balanced after 4 trials
     0:00:00: Reservoir R1 is emptying
     0:00:00: Tank T3 is filling at 3.01 m
     0:00:00: Tank T1 is emptying at 3.01 m
     0:00:00: Tank T7 is filling at 2.49 m
     0:00:00: Tank T6 is filling at 5.20 m
     0:00:00: Tank T5 is filling at 0.99 m
     0:00:00: Tank T2 is filling at 0.50 m
     0:00:00: Tank T4 is filling at 2.50 m
   
   
  Hydraulic Status:
  -----------------------------------------------------------------------
     0:00:00: Balanced after 4 trials
     0:00:00: Reservoir R1 is emptying
     0:00:00: Tank T3 is filling at 2.98 m
     0:00:00: Tank T1 is emptying at 3.00 m
     0:00:00: Tank T7 is filling at 2.50 m
     0:00:00: Tank T6 is filling at 5.19 m
     0:00:00: Tank T5 is filling at 1.00 m
     0:00:00: Tank T2 is filling at 0.50 m
     0:00:00: Tank T4 is filling at 2.49 m
   
   
  Hydraulic Status:
  -----------------------------------------------------------------------
     0:00:00: Balanced after 4 trials
     0:00:00: Reservoir R1 is emptying
     0:00:00: Tank T3 is filling at 3.02 m
     0:00:00: Tank T1 is emptying at 3.01 m
     0:00:00: Tank T7 is filling at 2.50 m
     0:00:00: Tank T6 is filling at 5.20 m
     0:00:00: Tank T5 is filling at 1.00 m
     0:00:00: Tank T2 is filling at 0.50 m
     0:00:00: Tank T4 is filling at 2.49 m
   
   
  Hydraulic Status:
  -----------------------------------------------------------------------
     0:00:00: Balanced after 4 trials
     0:00:00: Reservoir R1 is emptying
     0:00:00: Tank T3 is filling at 3.00 m
     0:00:00: Tank T1 is emptying at 3.01 m
     0:00:00: Tank T7 is filling at 2.51 m
     0:00:00: Tank T6 is filling at 5.18 m
     0:00:00: Tank T5 is filling at 1.00 m
     0:00:00: Tank T2 is filling at 0.50 m
     0:00:00: Tank T4 is filling at 2.52 m
   
   
  Hydraulic Status:
  -----------------------------------------------------------------------
     0:00:00: Balanced after 4 trials
     0:00:00: Reservoir R1 is emptying
     0:00:00: Tank T3 is filling at 3.02 m
     0:00:00: Tank T1 is emptying at 2.99 m
     0:00:00: Tank T7 is filling at 2.49 m
     0:00:00: Tank T6 is filling at 5.25 m
     0:00:00: Tank T5 is filling at 1.00 m
     0:00:00: Tank T2 is filling at 0.50 m
     0:00:00: Tank T4 is filling at 2.49 m
   
   
  Hydraulic Status:
  -----------------------------------------------------------------------
     0:00:00: Balanced after 4 trials
     0:00:00: Reservoir R1 is emptying
     0:00:00: Tank T3 is filling at 3.00 m
     0:00:00: Tank T1 is emptying at 2.98 m
     0:00:00: Tank T7 is filling at 2.50 m
     0:00:00: Tank T6 is filling at 5.20 m
     0:00:00: Tank T5 is filling at 1.00 m
     0:00:00: Tank T2 is filling at 0.50 m
     0:00:00: Tank T4 is filling at 2.52 m
   
   
  Hydraulic Status:
  -----------------------------------------------------------------------
     0:00:00: Balanced after 4 trials
     0:00:00: Reservoir R1 is emptying
     0:00:00: Tank T3 is filling at 3.00 m
     0:00:00: Tank T1 is emptying at 3.01 m
     0:00:00: Tank T7 is filling at 2.50 m
     0:00:00: Tank T6 is filling at 5.22 m
     0:00:00: Tank T5 is filling at 1.00 m
     0:00:00: Tank T2 is filling at 0.50 m
     0:00:00: Tank T4 is filling at 2.49 m
   
   
  Hydraulic Status:
  -----------------------------------------------------------------------
     0:00:00: Balanced after 4 trials
     0:00:00: Reservoir R1 is emptying
     0:00:00: Tank T3 is filling at 3.01 m
     0:00:00: Tank T1 is emptying at 3.02 m
     0:00:00: Tank T7 is filling at 2.49 m
     0:00:00: Tank T6 is filling at 5.22 m
     0:00:00: Tank T5 is filling at 1.00 m
     0:00:00: Tank T2 is filling at 0.50 m
     0:00:00: Tank T4 is filling at 2.49 m
   
   
  Hydraulic Status:
  -----------------------------------------------------------------------
     0:00:00: Balanced after 4 trials
     0:00:00: Reservoir R1 is emptying
     0:00:00: Tank T3 is filling at 3.02 m
     0:00:00: Tank T1 is emptying at 3.00 m
     0:00:00: Tank T7 is filling at 2.50 m
     0:00:00: Tank T6 is filling at 5.18 m
     0:00:00: Tank T5 is filling at 1.00 m
     0:00:00: Tank T2 is filling at 0.50 m
     0:00:00: Tank T4 is filling at 2.50 m
   
   
  Hydraulic Status:
  -----------------------------------------------------------------------
     0:00:00: Balanced after 4 trials
     0:00:00: Reservoir R1 is emptying
     0:00:00: Tank T3 is filling at 2.99 m
     0:00:00: Tank T1 is emptying at 3.01 m
     0:00:00: Tank T7 is filling at 2.50 m
     0:00:00: Tank T6 is filling at 5.20 m
     0:00:00: Tank T5 is filling at 1.00 m
     0:00:00: Tank T2 is filling at 0.50 m
     0:00:00: Tank T4 is filling at 2.50 m
   
   
  Hydraulic Status:
  -----------------------------------------------------------------------
     0:00:00: Balanced after 4 trials
     0:00:00: Reservoir R1 is emptying
     0:00:00: Tank T3 is filling at 3.00 m
     0:00:00: Tank T1 is emptying at 2.99 m
     0:00:00: Tank T7 is filling at 2.49 m
     0:00:00: Tank T6 is filling at 5.17 m
     0:00:00: Tank T5 is filling at 1.00 m
     0:00:00: Tank T2 is filling at 0.50 m
     0:00:00: Tank T4 is filling at 2.51 m
   
   
  Hydraulic Status:
  -----------------------------------------------------------------------
     0:00:00: Balanced after 4 trials
     0:00:00: Reservoir R1 is emptying
     0:00:00: Tank T3 is filling at 3.01 m
     0:00:00: Tank T1 is emptying at 3.02 m
     0:00:00: Tank T7 is filling at 2.48 m
     0:00:00: Tank T6 is filling at 5.19 m
     0:00:00: Tank T5 is filling at 1.00 m
     0:00:00: Tank T2 is filling at 0.50 m
     0:00:00: Tank T4 is filling at 2.47 m
   
   
  Hydraulic Status:
  -----------------------------------------------------------------------
     0:00:00: Balanced after 4 trials
     0:00:00: Reservoir R1 is emptying
     0:00:00: Tank T3 is filling at 3.01 m
     0:00:00: Tank T1 is emptying at 2.98 m
     0:00:00: Tank T7 is filling at 2.49 m
     0:00:00: Tank T6 is filling at 5.20 m
     0:00:00: Tank T5 is filling at 1.01 m
     0:00:00: Tank T2 is filling at 0.50 m
     0:00:00: Tank T4 is filling at 2.51 m
   
   
  Hydraulic Status:
  -----------------------------------------------------------------------
     0:00:00: Balanced after 4 trials
     0:00:00: Reservoir R1 is emptying
     0:00:00: Tank T3 is filling at 3.00 m
     0:00:00: Tank T1 is emptying at 3.03 m
     0:00:00: Tank T7 is filling at 2.49 m
     0:00:00: Tank T6 is filling at 5.18 m
     0:00:00: Tank T5 is filling at 1.00 m
     0:00:00: Tank T2 is filling at 0.50 m
     0:00:00: Tank T4 is filling at 2.51 m
   
   
  Hydraulic Status:
  -----------------------------------------------------------------------
     0:00:00: Balanced after 4 trials
     0:00:00: Reservoir R1 is emptying
     0:00:00: Tank T3 is filling at 2.97 m
     0:00:00: Tank T1 is emptying at 3.00 m
     0:00:00: Tank T7 is filling at 2.50 m
     0:00:00: Tank T6 is filling at 5.17 m
     0:00:00: Tank T5 is filling at 1.00 m
     0:00:00: Tank T2 is filling at 0.50 m
     0:00:00: Tank T4 is filling at 2.50 m
   
   
  Hydraulic Status:
  -----------------------------------------------------------------------
     0:00:00: Balanced after 4 trials
     0:00:00: Reservoir R1 is emptying
     0:00:00: Tank T3 is filling at 2.99 m
     0:00:00: Tank T1 is emptying at 3.00 m
     0:00:00: Tank T7 is filling at 2.50 m
     0:00:00: Tank T6 is filling at 5.17 m
     0:00:00: Tank T5 is filling at 1.00 m
     0:00:00: Tank T2 is filling at 0.50 m
     0:00:00: Tank T4 is filling at 2.49 m
   
   
  Hydraulic Status:
  -----------------------------------------------------------------------
     0:00:00: Balanced after 4 trials
     0:00:00: Reservoir R1 is emptying
     0:00:00: Tank T3 is filling at 3.01 m
     0:00:00: Tank T1 is emptying at 2.99 m
     0:00:00: Tank T7 is filling at 2.50 m
     0:00:00: Tank T6 is filling at 5.21 m
     0:00:00: Tank T5 is filling at 1.00 m
     0:00:00: Tank T2 is filling at 0.50 m
     0:00:00: Tank T4 is filling at 2.51 m
   
   
  Hydraulic Status:
  -----------------------------------------------------------------------
     0:00:00: Balanced after 4 trials
     0:00:00: Reservoir R1 is emptying
     0:00:00: Tank T3 is filling at 3.00 m
     0:00:00: Tank T1 is emptying at 2.99 m
     0:00:00: Tank T7 is filling at 2.50 m
     0:00:00: Tank T6 is filling at 5.18 m
     0:00:00: Tank T5 is filling at 1.00 m
     0:00:00: Tank T2 is filling at 0.50 m
     0:00:00: Tank T4 is filling at 2.48 m
   
   
  Hydraulic Status:
  -----------------------------------------------------------------------
     0:00:00: Balanced after 4 trials
     0:00:00: Reservoir R1 is emptying
     0:00:00: Tank T3 is filling at 2.99 m
     0:00:00: Tank T1 is emptying at 3.00 m
     0:00:00: Tank T7 is filling at 2.51 m
     0:00:00: Tank T6 is filling at 5.18 m
     0:00:00: Tank T5 is filling at 1.00 m
     0:00:00: Tank T2 is filling at 0.50 m
     0:00:00: Tank T4 is filling at 2.50 m
   
   
  Hydraulic Status:
  -----------------------------------------------------------------------
     0:00:00: Balanced after 4 trials
     0:00:00: Reservoir R1 is emptying
     0:00:00: Tank T3 is filling at 3.01 m
     0:00:00: Tank T1 is emptying at 3.00 m
     0:00:00: Tank T7 is filling at 2.50 m
     0:00:00: Tank T6 is filling at 5.19 m
     0:00:00: Tank T5 is filling at 1.00 m
     0:00:00: Tank T2 is filling at 0.50 m
     0:00:00: Tank T4 is filling at 2.49 m
   
   
  Hydraulic Status:
  -----------------------------------------------------------------------
     0:00:00: Balanced after 4 trials
     0:00:00: Reservoir R1 is emptying
     0:00:00: Tank T3 is filling at 2.97 m
     0:00:00: Tank T1 is emptying at 2.99 m
     0:00:00: Tank T7 is filling at 2.51 m
     0:00:00: Tank T6 is filling at 5.21 m
     0:00:00: Tank T5 is filling at 1.00 m
     0:00:00: Tank T2 is filling at 0.50 m
     0:00:00: Tank T4 is filling at 2.48 m
   
   
  Hydraulic Status:
  -----------------------------------------------------------------------
     0:00:00: Balanced after 4 trials
     0:00:00: Reservoir R1 is emptying
     0:00:00: Tank T3 is filling at 3.00 m
     0:00:00: Tank T1 is emptying at 2.99 m
     0:00:00: Tank T7 is filling at 2.49 m
     0:00:00: Tank T6 is filling at 5.21 m
     0:00:00: Tank T5 is filling at 1.01 m
     0:00:00: Tank T2 is filling at 0.50 m
     0:00:00: Tank T4 is filling at 2.50 m
   
   
  Hydraulic Status:
  -----------------------------------------------------------------------
     0:00:00: Balanced after 4 trials
     0:00:00: Reservoir R1 is emptying
     0:00:00: Tank T3 is filling at 2.98 m
     0:00:00: Tank T1 is emptying at 3.01 m
     0:00:00: Tank T7 is filling at 2.49 m
     0:00:00: Tank T6 is filling at 5.21 m
     0:00:00: Tank T5 is filling at 1.00 m
     0:00:00: Tank T2 is filling at 0.50 m
     0:00:00: Tank T4 is filling at 2.51 m
   
   
  Hydraulic Status:
  -----------------------------------------------------------------------
     0:00:00: Balanced after 4 trials
     0:00:00: Reservoir R1 is emptying
     0:00:00: Tank T3 is filling at 3.01 m
     0:00:00: Tank T1 is emptying at 3.02 m
     0:00:00: Tank T7 is filling at 2.50 m
     0:00:00: Tank T6 is filling at 5.18 m
     0:00:00: Tank T5 is filling at 1.00 m
     0:00:00: Tank T2 is filling at 0.50 m
     0:00:00: Tank T4 is filling at 2.50 m
   
   
  Hydraulic Status:
  -----------------------------------------------------------------------
     0:00:00: Balanced after 4 trials
     0:00:00: Reservoir R1 is emptying
     0:00:00: Tank T3 is filling at 3.00 m
     0:00:00: Tank T1 is emptying at 2.98 m
     0:00:00: Tank T7 is filling at 2.50 m
     0:00:00: Tank T6 is filling at 5.21 m
     0:00:00: Tank T5 is filling at 1.00 m
     0:00:00: Tank T2 is filling at 0.50 m
     0:00:00: Tank T4 is filling at 2.51 m
   
   
  Hydraulic Status:
  -----------------------------------------------------------------------
     0:00:00: Balanced after 4 trials
     0:00:00: Reservoir R1 is emptying
     0:00:00: Tank T3 is filling at 2.99 m
     0:00:00: Tank T1 is emptying at 3.00 m
     0:00:00: Tank T7 is filling at 2.50 m
     0:00:00: Tank T6 is filling at 5.20 m
     0:00:00: Tank T5 is filling at 1.00 m
     0:00:00: Tank T2 is filling at 0.50 m
     0:00:00: Tank T4 is filling at 2.50 m
   
   
  Hydraulic Status:
  -----------------------------------------------------------------------
     0:00:00: Balanced after 4 trials
     0:00:00: Reservoir R1 is emptying
     0:00:00: Tank T3 is filling at 3.00 m
     0:00:00: Tank T1 is emptying at 2.99 m
     0:00:00: Tank T7 is filling at 2.51 m
     0:00:00: Tank T6 is filling at 5.20 m
     0:00:00: Tank T5 is filling at 1.01 m
     0:00:00: Tank T2 is filling at 0.50 m
     0:00:00: Tank T4 is filling at 2.51 m
   
   
  Hydraulic Status:
  -----------------------------------------------------------------------
     0:00:00: Balanced after 4 trials
     0:00:00: Reservoir R1 is emptying
     0:00:00: Tank T3 is filling at 2.99 m
     0:00:00: Tank T1 is emptying at 3.00 m
     0:00:00: Tank T7 is filling at 2.49 m
     0:00:00: Tank T6 is filling at 5.17 m
     0:00:00: Tank T5 is filling at 1.00 m
     0:00:00: Tank T2 is filling at 0.50 m
     0:00:00: Tank T4 is filling at 2.49 m
   
   
  Hydraulic Status:
  -----------------------------------------------------------------------
     0:00:00: Balanced after 4 trials
     0:00:00: Reservoir R1 is emptying
     0:00:00: Tank T3 is filling at 3.02 m
     0:00:00: Tank T1 is emptying at 2.99 m
     0:00:00: Tank T7 is filling at 2.50 m
     0:00:00: Tank T6 is filling at 5.21 m
     0:00:00: Tank T5 is filling at 1.00 m
     0:00:00: Tank T2 is filling at 0.50 m
     0:00:00: Tank T4 is filling at 2.49 m
   
   
  Hydraulic Status:
  -----------------------------------------------------------------------
     0:00:00: Balanced after 4 trials
     0:00:00: Reservoir R1 is emptying
     0:00:00: Tank T3 is filling at 3.02 m
     0:00:00: Tank T1 is emptying at 3.01 m
     0:00:00: Tank T7 is filling at 2.49 m
     0:00:00: Tank T6 is filling at 5.18 m
     0:00:00: Tank T5 is filling at 0.99 m
     0:00:00: Tank T2 is filling at 0.50 m
     0:00:00: Tank T4 is filling at 2.51 m
   
   
  Hydraulic Status:
  -----------------------------------------------------------------------
     0:00:00: Balanced after 4 trials
     0:00:00: Reservoir R1 is emptying
     0:00:00: Tank T3 is filling at 3.00 m
     0:00:00: Tank T1 is emptying at 3.01 m
     0:00:00: Tank T7 is filling at 2.49 m
     0:00:00: Tank T6 is filling at 5.24 m
     0:00:00: Tank T5 is filling at 1.01 m
     0:00:00: Tank T2 is filling at 0.50 m
     0:00:00: Tank T4 is filling at 2.51 m
   
   
  Hydraulic Status:
  -----------------------------------------------------------------------
     0:00:00: Balanced after 4 trials
     0:00:00: Reservoir R1 is emptying
     0:00:00: Tank T3 is filling at 3.01 m
     0:00:00: Tank T1 is emptying at 2.98 m
     0:00:00: Tank T7 is filling at 2.50 m
     0:00:00: Tank T6 is filling at 5.18 m
     0:00:00: Tank T5 is filling at 1.00 m
     0:00:00: Tank T2 is filling at 0.50 m
     0:00:00: Tank T4 is filling at 2.49 m
   
   
  Hydraulic Status:
  -----------------------------------------------------------------------
     0:00:00: Balanced after 4 trials
     0:00:00: Reservoir R1 is emptying
     0:00:00: Tank T3 is filling at 3.01 m
     0:00:00: Tank T1 is emptying at 2.98 m
     0:00:00: Tank T7 is filling at 2.50 m
     0:00:00: Tank T6 is filling at 5.22 m
     0:00:00: Tank T5 is filling at 1.00 m
     0:00:00: Tank T2 is filling at 0.50 m
     0:00:00: Tank T4 is filling at 2.51 m
   
   
  Hydraulic Status:
  -----------------------------------------------------------------------
     0:00:00: Balanced after 4 trials
     0:00:00: Reservoir R1 is emptying
     0:00:00: Tank T3 is filling at 3.00 m
     0:00:00: Tank T1 is emptying at 3.01 m
     0:00:00: Tank T7 is filling at 2.51 m
     0:00:00: Tank T6 is filling at 5.22 m
     0:00:00: Tank T5 is filling at 1.00 m
     0:00:00: Tank T2 is filling at 0.50 m
     0:00:00: Tank T4 is filling at 2.50 m
   
   
  Hydraulic Status:
  -----------------------------------------------------------------------
     0:00:00: Balanced after 4 trials
     0:00:00: Reservoir R1 is emptying
     0:00:00: Tank T3 is filling at 3.00 m
     0:00:00: Tank T1 is emptying at 2.99 m
     0:00:00: Tank T7 is filling at 2.49 m
     0:00:00: Tank T6 is filling at 5.20 m
     0:00:00: Tank T5 is filling at 1.00 m
     0:00:00: Tank T2 is filling at 0.50 m
     0:00:00: Tank T4 is filling at 2.49 m
   
   
  Hydraulic Status:
  -----------------------------------------------------------------------
     0:00:00: Balanced after 4 trials
     0:00:00: Reservoir R1 is emptying
     0:00:00: Tank T3 is filling at 2.98 m
     0:00:00: Tank T1 is emptying at 3.00 m
     0:00:00: Tank T7 is filling at 2.49 m
     0:00:00: Tank T6 is filling at 5.24 m
     0:00:00: Tank T5 is filling at 1.00 m
     0:00:00: Tank T2 is filling at 0.50 m
     0:00:00: Tank T4 is filling at 2.50 m
   
   
  Hydraulic Status:
  -----------------------------------------------------------------------
     0:00:00: Balanced after 4 trials
     0:00:00: Reservoir R1 is emptying
     0:00:00: Tank T3 is filling at 2.99 m
     0:00:00: Tank T1 is emptying at 3.00 m
     0:00:00: Tank T7 is filling at 2.51 m
     0:00:00: Tank T6 is filling at 5.22 m
     0:00:00: Tank T5 is filling at 1.00 m
     0:00:00: Tank T2 is filling at 0.50 m
     0:00:00: Tank T4 is filling at 2.51 m
   
   
  Hydraulic Status:
  -----------------------------------------------------------------------
     0:00:00: Balanced after 4 trials
     0:00:00: Reservoir R1 is emptying
     0:00:00: Tank T3 is filling at 2.98 m
     0:00:00: Tank T1 is emptying at 2.99 m
     0:00:00: Tank T7 is filling at 2.49 m
     0:00:00: Tank T6 is filling at 5.24 m
     0:00:00: Tank T5 is filling at 1.00 m
     0:00:00: Tank T2 is filling at 0.50 m
     0:00:00: Tank T4 is filling at 2.50 m
   
   
  Hydraulic Status:
  -----------------------------------------------------------------------
     0:00:00: Balanced after 4 trials
     0:00:00: Reservoir R1 is emptying
     0:00:00: Tank T3 is filling at 3.02 m
     0:00:00: Tank T1 is emptying at 3.01 m
     0:00:00: Tank T7 is filling at 2.49 m
     0:00:00: Tank T6 is filling at 5.20 m
     0:00:00: Tank T5 is filling at 1.00 m
     0:00:00: Tank T2 is filling at 0.50 m
     0:00:00: Tank T4 is filling at 2.50 m
   
   
  Hydraulic Status:
  -----------------------------------------------------------------------
     0:00:00: Balanced after 4 trials
     0:00:00: Reservoir R1 is emptying
     0:00:00: Tank T3 is filling at 2.99 m
     0:00:00: Tank T1 is emptying at 3.00 m
     0:00:00: Tank T7 is filling at 2.50 m
     0:00:00: Tank T6 is filling at 5.22 m
     0:00:00: Tank T5 is filling at 1.00 m
     0:00:00: Tank T2 is filling at 0.50 m
     0:00:00: Tank T4 is filling at 2.50 m
   
   
  Hydraulic Status:
  -----------------------------------------------------------------------
     0:00:00: Balanced after 4 trials
     0:00:00: Reservoir R1 is emptying
     0:00:00: Tank T3 is filling at 3.00 m
     0:00:00: Tank T1 is emptying at 2.99 m
     0:00:00: Tank T7 is filling at 2.50 m
     0:00:00: Tank T6 is filling at 5.21 m
     0:00:00: Tank T5 is filling at 1.00 m
     0:00:00: Tank T2 is filling at 0.50 m
     0:00:00: Tank T4 is filling at 2.51 m
   
   
  Hydraulic Status:
  -----------------------------------------------------------------------
     0:00:00: Balanced after 4 trials
     0:00:00: Reservoir R1 is emptying
     0:00:00: Tank T3 is filling at 3.00 m
     0:00:00: Tank T1 is emptying at 3.00 m
     0:00:00: Tank T7 is filling at 2.50 m
     0:00:00: Tank T6 is filling at 5.22 m
     0:00:00: Tank T5 is filling at 1.00 m
     0:00:00: Tank T2 is filling at 0.50 m
     0:00:00: Tank T4 is filling at 2.50 m
   
   
  Hydraulic Status:
  -----------------------------------------------------------------------
     0:00:00: Balanced after 4 trials
     0:00:00: Reservoir R1 is emptying
     0:00:00: Tank T3 is filling at 3.01 m
     0:00:00: Tank T1 is emptying at 3.01 m
     0:00:00: Tank T7 is filling at 2.50 m
     0:00:00: Tank T6 is filling at 5.19 m
     0:00:00: Tank T5 is filling at 1.00 m
     0:00:00: Tank T2 is filling at 0.50 m
     0:00:00: Tank T4 is filling at 2.51 m
   
   
  Hydraulic Status:
  -----------------------------------------------------------------------
     0:00:00: Balanced after 4 trials
     0:00:00: Reservoir R1 is emptying
     0:00:00: Tank T3 is filling at 2.99 m
     0:00:00: Tank T1 is emptying at 3.01 m
     0:00:00: Tank T7 is filling at 2.50 m
     0:00:00: Tank T6 is filling at 5.24 m
     0:00:00: Tank T5 is filling at 1.00 m
     0:00:00: Tank T2 is filling at 0.50 m
     0:00:00: Tank T4 is filling at 2.51 m
   
   
  Hydraulic Status:
  -----------------------------------------------------------------------
     0:00:00: Balanced after 4 trials
     0:00:00: Reservoir R1 is emptying
     0:00:00: Tank T3 is filling at 3.01 m
     0:00:00: Tank T1 is emptying at 3.00 m
     0:00:00: Tank T7 is filling at 2.49 m
     0:00:00: Tank T6 is filling at 5.17 m
     0:00:00: Tank T5 is filling at 1.00 m
     0:00:00: Tank T2 is filling at 0.50 m
     0:00:00: Tank T4 is filling at 2.51 m
   
   
  Hydraulic Status:
  -----------------------------------------------------------------------
     0:00:00: Balanced after 4 trials
     0:00:00: Reservoir R1 is emptying
     0:00:00: Tank T3 is filling at 2.99 m
     0:00:00: Tank T1 is emptying at 3.02 m
     0:00:00: Tank T7 is filling at 2.53 m
     0:00:00: Tank T6 is filling at 5.19 m
     0:00:00: Tank T5 is filling at 1.00 m
     0:00:00: Tank T2 is filling at 0.50 m
     0:00:00: Tank T4 is filling at 2.49 m
   
   
  Hydraulic Status:
  -----------------------------------------------------------------------
[...]
     0:00:00: Tank T5 is filling at 1.00 m
     0:00:00: Tank T2 is filling at 0.50 m
     0:00:00: Tank T4 is filling at 2.51 m
   
   
  Hydraulic Status:
  -----------------------------------------------------------------------
     0:00:00: Balanced after 4 trials
     0:00:00: Reservoir R1 is emptying
     0:00:00: Tank T3 is filling at 3.00 m
     0:00:00: Tank T1 is emptying at 3.03 m
     0:00:00: Tank T7 is filling at 2.50 m
     0:00:00: Tank T6 is filling at 5.21 m
     0:00:00: Tank T5 is filling at 1.00 m
     0:00:00: Tank T2 is filling at 0.50 m
     0:00:00: Tank T4 is filling at 2.51 m
   
   
  Hydraulic Status:
  -----------------------------------------------------------------------
     0:00:00: Balanced after 4 trials
     0:00:00: Reservoir R1 is emptying
     0:00:00: Tank T3 is filling at 2.97 m
     0:00:00: Tank T1 is emptying at 3.00 m
     0:00:00: Tank T7 is filling at 2.48 m
     0:00:00: Tank T6 is filling at 5.20 m
     0:00:00: Tank T5 is filling at 0.99 m
     0:00:00: Tank T2 is filling at 0.50 m
     0:00:00: Tank T4 is filling at 2.48 m
   
   
  Hydraulic Status:
  -----------------------------------------------------------------------
     0:00:00: Balanced after 4 trials
     0:00:00: Reservoir R1 is emptying
     0:00:00: Tank T3 is filling at 3.01 m
     0:00:00: Tank T1 is emptying at 3.01 m
     0:00:00: Tank T7 is filling at 2.49 m
     0:00:00: Tank T6 is filling at 5.21 m
     0:00:00: Tank T5 is filling at 1.01 m
     0:00:00: Tank T2 is filling at 0.50 m
     0:00:00: Tank T4 is filling at 2.52 m
   
   
  Hydraulic Status:
  -----------------------------------------------------------------------
     0:00:00: Balanced after 4 trials
     0:00:00: Reservoir R1 is emptying
     0:00:00: Tank T3 is filling at 3.01 m
     0:00:00: Tank T1 is emptying at 3.01 m
     0:00:00: Tank T7 is filling at 2.49 m
     0:00:00: Tank T6 is filling at 5.22 m
     0:00:00: Tank T5 is filling at 1.00 m
     0:00:00: Tank T2 is filling at 0.50 m
     0:00:00: Tank T4 is filling at 2.49 m
   
   
  Hydraulic Status:
  -----------------------------------------------------------------------
     0:00:00: Balanced after 4 trials
     0:00:00: Reservoir R1 is emptying
     0:00:00: Tank T3 is filling at 3.00 m
     0:00:00: Tank T1 is emptying at 2.99 m
     0:00:00: Tank T7 is filling at 2.49 m
     0:00:00: Tank T6 is filling at 5.20 m
     0:00:00: Tank T5 is filling at 1.00 m
     0:00:00: Tank T2 is filling at 0.50 m
     0:00:00: Tank T4 is filling at 2.51 m
   
   
  Hydraulic Status:
  -----------------------------------------------------------------------
     0:00:00: Balanced after 4 trials
     0:00:00: Reservoir R1 is emptying
     0:00:00: Tank T3 is filling at 2.99 m
     0:00:00: Tank T1 is emptying at 3.02 m
     0:00:00: Tank T7 is filling at 2.52 m
     0:00:00: Tank T6 is filling at 5.21 m
     0:00:00: Tank T5 is filling at 1.00 m
     0:00:00: Tank T2 is filling at 0.50 m
     0:00:00: Tank T4 is filling at 2.50 m
   
   
  Hydraulic Status:
  -----------------------------------------------------------------------
     0:00:00: Balanced after 4 trials
     0:00:00: Reservoir R1 is emptying
     0:00:00: Tank T3 is filling at 3.00 m
     0:00:00: Tank T1 is emptying at 3.00 m
     0:00:00: Tank T7 is filling at 2.51 m
     0:00:00: Tank T6 is filling at 5.20 m
     0:00:00: Tank T5 is filling at 1.00 m
     0:00:00: Tank T2 is filling at 0.50 m
     0:00:00: Tank T4 is filling at 2.50 m
   
   
  Hydraulic Status:
  -----------------------------------------------------------------------
     0:00:00: Balanced after 4 trials
     0:00:00: Reservoir R1 is emptying
     0:00:00: Tank T3 is filling at 2.98 m
     0:00:00: Tank T1 is emptying at 3.00 m
     0:00:00: Tank T7 is filling at 2.48 m
     0:00:00: Tank T6 is filling at 5.22 m
     0:00:00: Tank T5 is filling at 0.99 m
     0:00:00: Tank T2 is filling at 0.50 m
     0:00:00: Tank T4 is filling at 2.51 m
   
   
  Hydraulic Status:
  -----------------------------------------------------------------------
     0:00:00: Balanced after 4 trials
     0:00:00: Reservoir R1 is emptying
     0:00:00: Tank T3 is filling at 3.01 m
     0:00:00: Tank T1 is emptying at 3.00 m
     0:00:00: Tank T7 is filling at 2.50 m
     0:00:00: Tank T6 is filling at 5.20 m
     0:00:00: Tank T5 is filling at 0.99 m
     0:00:00: Tank T2 is filling at 0.50 m
     0:00:00: Tank T4 is filling at 2.51 m
   
   
  Hydraulic Status:
  -----------------------------------------------------------------------
     0:00:00: Balanced after 4 trials
     0:00:00: Reservoir R1 is emptying
     0:00:00: Tank T3 is filling at 3.01 m
     0:00:00: Tank T1 is emptying at 3.02 m
     0:00:00: Tank T7 is filling at 2.52 m
     0:00:00: Tank T6 is filling at 5.17 m
     0:00:00: Tank T5 is filling at 1.00 m
     0:00:00: Tank T2 is filling at 0.50 m
     0:00:00: Tank T4 is filling at 2.50 m
   
   
  Hydraulic Status:
  -----------------------------------------------------------------------
     0:00:00: Balanced after 4 trials
     0:00:00: Reservoir R1 is emptying
     0:00:00: Tank T3 is filling at 3.04 m
     0:00:00: Tank T1 is emptying at 3.00 m
     0:00:00: Tank T7 is filling at 2.50 m
     0:00:00: Tank T6 is filling at 5.20 m
     0:00:00: Tank T5 is filling at 1.00 m
     0:00:00: Tank T2 is filling at 0.50 m
     0:00:00: Tank T4 is filling at 2.50 m
   
   
  Hydraulic Status:
  -----------------------------------------------------------------------
     0:00:00: Balanced after 4 trials
     0:00:00: Reservoir R1 is emptying
     0:00:00: Tank T3 is filling at 2.99 m
     0:00:00: Tank T1 is emptying at 2.98 m
     0:00:00: Tank T7 is filling at 2.49 m
     0:00:00: Tank T6 is filling at 5.17 m
     0:00:00: Tank T5 is filling at 1.00 m
     0:00:00: Tank T2 is filling at 0.50 m
     0:00:00: Tank T4 is filling at 2.51 m
   
   
  Hydraulic Status:
  -----------------------------------------------------------------------
     0:00:00: Balanced after 4 trials
     0:00:00: Reservoir R1 is emptying
     0:00:00: Tank T3 is filling at 3.00 m
     0:00:00: Tank T1 is emptying at 2.99 m
     0:00:00: Tank T7 is filling at 2.49 m
     0:00:00: Tank T6 is filling at 5.15 m
     0:00:00: Tank T5 is filling at 1.00 m
     0:00:00: Tank T2 is filling at 0.50 m
     0:00:00: Tank T4 is filling at 2.49 m
   
   
  Hydraulic Status:
  -----------------------------------------------------------------------
     0:00:00: Balanced after 4 trials
     0:00:00: Reservoir R1 is emptying
     0:00:00: Tank T3 is filling at 3.00 m
     0:00:00: Tank T1 is emptying at 3.01 m
     0:00:00: Tank T7 is filling at 2.50 m
     0:00:00: Tank T6 is filling at 5.23 m
     0:00:00: Tank T5 is filling at 1.00 m
     0:00:00: Tank T2 is filling at 0.50 m
     0:00:00: Tank T4 is filling at 2.50 m
   
   
  Hydraulic Status:
  -----------------------------------------------------------------------
     0:00:00: Balanced after 4 trials
     0:00:00: Reservoir R1 is emptying
     0:00:00: Tank T3 is filling at 3.00 m
     0:00:00: Tank T1 is emptying at 3.01 m
     0:00:00: Tank T7 is filling at 2.49 m
     0:00:00: Tank T6 is filling at 5.20 m
     0:00:00: Tank T5 is filling at 0.99 m
     0:00:00: Tank T2 is filling at 0.50 m
     0:00:00: Tank T4 is filling at 2.49 m
   
   
  Hydraulic Status:
  -----------------------------------------------------------------------
     0:00:00: Balanced after 4 trials
     0:00:00: Reservoir R1 is emptying
     0:00:00: Tank T3 is filling at 3.00 m
     0:00:00: Tank T1 is emptying at 2.99 m
     0:00:00: Tank T7 is filling at 2.49 m
     0:00:00: Tank T6 is filling at 5.19 m
     0:00:00: Tank T5 is filling at 1.00 m
     0:00:00: Tank T2 is filling at 0.50 m
     0:00:00: Tank T4 is filling at 2.51 m
   
   
  Hydraulic Status:
  -----------------------------------------------------------------------
     0:00:00: Balanced after 4 trials
     0:00:00: Reservoir R1 is emptying
     0:00:00: Tank T3 is filling at 3.00 m
     0:00:00: Tank T1 is emptying at 3.00 m
     0:00:00: Tank T7 is filling at 2.49 m
     0:00:00: Tank T6 is filling at 5.19 m
     0:00:00: Tank T5 is filling at 1.00 m
     0:00:00: Tank T2 is filling at 0.50 m
     0:00:00: Tank T4 is filling at 2.50 m
   
   
  Hydraulic Status:
  -----------------------------------------------------------------------
     0:00:00: Balanced after 4 trials
     0:00:00: Reservoir R1 is emptying
     0:00:00: Tank T3 is filling at 3.00 m
     0:00:00: Tank T1 is emptying at 3.01 m
     0:00:00: Tank T7 is filling at 2.49 m
     0:00:00: Tank T6 is filling at 5.23 m
     0:00:00: Tank T5 is filling at 1.00 m
     0:00:00: Tank T2 is filling at 0.50 m
     0:00:00: Tank T4 is filling at 2.49 m
   
   
  Hydraulic Status:
  -----------------------------------------------------------------------
     0:00:00: Balanced after 4 trials
     0:00:00: Reservoir R1 is emptying
     0:00:00: Tank T3 is filling at 3.00 m
     0:00:00: Tank T1 is emptying at 3.02 m
     0:00:00: Tank T7 is filling at 2.50 m
     0:00:00: Tank T6 is filling at 5.20 m
     0:00:00: Tank T5 is filling at 1.00 m
     0:00:00: Tank T2 is filling at 0.50 m
     0:00:00: Tank T4 is filling at 2.50 m
   
   
  Hydraulic Status:
  -----------------------------------------------------------------------
     0:00:00: Balanced after 4 trials
     0:00:00: Reservoir R1 is emptying
     0:00:00: Tank T3 is filling at 3.01 m
     0:00:00: Tank T1 is emptying at 3.01 m
     0:00:00: Tank T7 is filling at 2.50 m
     0:00:00: Tank T6 is filling at 5.21 m
     0:00:00: Tank T5 is filling at 1.00 m
     0:00:00: Tank T2 is filling at 0.50 m
     0:00:00: Tank T4 is filling at 2.49 m
   
   
  Hydraulic Status:
  -----------------------------------------------------------------------
     0:00:00: Balanced after 4 trials
     0:00:00: Reservoir R1 is emptying
     0:00:00: Tank T3 is filling at 2.99 m
     0:00:00: Tank T1 is emptying at 3.00 m
     0:00:00: Tank T7 is filling at 2.50 m
     0:00:00: Tank T6 is filling at 5.19 m
     0:00:00: Tank T5 is filling at 0.99 m
     0:00:00: Tank T2 is filling at 0.50 m
     0:00:00: Tank T4 is filling at 2.49 m
   
   
  Hydraulic Status:
  -----------------------------------------------------------------------
     0:00:00: Balanced after 4 trials
     0:00:00: Reservoir R1 is emptying
     0:00:00: Tank T3 is filling at 2.99 m
     0:00:00: Tank T1 is emptying at 3.00 m
     0:00:00: Tank T7 is filling at 2.51 m
     0:00:00: Tank T6 is filling at 5.22 m
     0:00:00: Tank T5 is filling at 1.01 m
     0:00:00: Tank T2 is filling at 0.50 m
     0:00:00: Tank T4 is filling at 2.51 m
   
   
  Hydraulic Status:
  -----------------------------------------------------------------------
     0:00:00: Balanced after 4 trials
     0:00:00: Reservoir R1 is emptying
     0:00:00: Tank T3 is filling at 3.00 m
     0:00:00: Tank T1 is emptying at 3.00 m
     0:00:00: Tank T7 is filling at 2.50 m
     0:00:00: Tank T6 is filling at 5.17 m
     0:00:00: Tank T5 is filling at 1.00 m
     0:00:00: Tank T2 is filling at 0.50 m
     0:00:00: Tank T4 is filling at 2.49 m
   
   
  Hydraulic Status:
  -----------------------------------------------------------------------
     0:00:00: Balanced after 4 trials
     0:00:00: Reservoir R1 is emptying
     0:00:00: Tank T3 is filling at 2.99 m
     0:00:00: Tank T1 is emptying at 3.00 m
     0:00:00: Tank T7 is filling at 2.50 m
     0:00:00: Tank T6 is filling at 5.21 m
     0:00:00: Tank T5 is filling at 1.00 m
     0:00:00: Tank T2 is filling at 0.50 m
     0:00:00: Tank T4 is filling at 2.48 m
   
   
  Hydraulic Status:
  -----------------------------------------------------------------------
     0:00:00: Balanced after 4 trials
     0:00:00: Reservoir R1 is emptying
     0:00:00: Tank T3 is filling at 2.99 m
     0:00:00: Tank T1 is emptying at 3.00 m
     0:00:00: Tank T7 is filling at 2.51 m
     0:00:00: Tank T6 is filling at 5.24 m
     0:00:00: Tank T5 is filling at 1.00 m
     0:00:00: Tank T2 is filling at 0.50 m
     0:00:00: Tank T4 is filling at 2.50 m
   
   
  Hydraulic Status:
  -----------------------------------------------------------------------
     0:00:00: Balanced after 4 trials
     0:00:00: Reservoir R1 is emptying
     0:00:00: Tank T3 is filling at 3.00 m
     0:00:00: Tank T1 is emptying at 2.98 m
     0:00:00: Tank T7 is filling at 2.51 m
     0:00:00: Tank T6 is filling at 5.22 m
     0:00:00: Tank T5 is filling at 1.00 m
     0:00:00: Tank T2 is filling at 0.50 m
     0:00:00: Tank T4 is filling at 2.51 m
   
   
  Hydraulic Status:
  -----------------------------------------------------------------------
     0:00:00: Balanced after 4 trials
     0:00:00: Reservoir R1 is emptying
     0:00:00: Tank T3 is filling at 3.01 m
     0:00:00: Tank T1 is emptying at 2.99 m
     0:00:00: Tank T7 is filling at 2.50 m
     0:00:00: Tank T6 is filling at 5.21 m
     0:00:00: Tank T5 is filling at 1.00 m
     0:00:00: Tank T2 is filling at 0.50 m
     0:00:00: Tank T4 is filling at 2.50 m
   
   
  Hydraulic Status:
  -----------------------------------------------------------------------
     0:00:00: Balanced after 4 trials
     0:00:00: Reservoir R1 is emptying
     0:00:00: Tank T3 is filling at 3.02 m
     0:00:00: Tank T1 is emptying at 3.01 m
     0:00:00: Tank T7 is filling at 2.50 m
     0:00:00: Tank T6 is filling at 5.21 m
     0:00:00: Tank T5 is filling at 1.00 m
     0:00:00: Tank T2 is filling at 0.50 m
     0:00:00: Tank T4 is filling at 2.50 m
   
   
  Hydraulic Status:
  -----------------------------------------------------------------------
     0:00:00: Balanced after 4 trials
     0:00:00: Reservoir R1 is emptying
     0:00:00: Tank T3 is filling at 3.00 m
     0:00:00: Tank T1 is emptying at 3.01 m
     0:00:00: Tank T7 is filling at 2.50 m
     0:00:00: Tank T6 is filling at 5.20 m
     0:00:00: Tank T5 is filling at 0.99 m
     0:00:00: Tank T2 is filling at 0.50 m
     0:00:00: Tank T4 is filling at 2.53 m
   
   
  Hydraulic Status:
  -----------------------------------------------------------------------
     0:00:00: Balanced after 4 trials
     0:00:00: Reservoir R1 is emptying
     0:00:00: Tank T3 is filling at 3.00 m
     0:00:00: Tank T1 is emptying at 2.99 m
     0:00:00: Tank T7 is filling at 2.50 m
     0:00:00: Tank T6 is filling at 5.14 m
     0:00:00: Tank T5 is filling at 1.00 m
     0:00:00: Tank T2 is filling at 0.50 m
     0:00:00: Tank T4 is filling at 2.49 m
   
   
  Hydraulic Status:
  -----------------------------------------------------------------------
     0:00:00: Balanced after 4 trials
     0:00:00: Reservoir R1 is emptying
     0:00:00: Tank T3 is filling at 2.99 m
     0:00:00: Tank T1 is emptying at 2.99 m
     0:00:00: Tank T7 is filling at 2.50 m
     0:00:00: Tank T6 is filling at 5.22 m
     0:00:00: Tank T5 is filling at 1.00 m
     0:00:00: Tank T2 is filling at 0.50 m
     0:00:00: Tank T4 is filling at 2.50 m
   
   
  Hydraulic Status:
  -----------------------------------------------------------------------
     0:00:00: Balanced after 4 trials
     0:00:00: Reservoir R1 is emptying
     0:00:00: Tank T3 is filling at 3.00 m
     0:00:00: Tank T1 is emptying at 3.01 m
     0:00:00: Tank T7 is filling at 2.51 m
     0:00:00: Tank T6 is filling at 5.21 m
     0:00:00: Tank T5 is filling at 1.00 m
     0:00:00: Tank T2 is filling at 0.50 m
     0:00:00: Tank T4 is filling at 2.50 m
   
   
  Hydraulic Status:
  -----------------------------------------------------------------------
     0:00:00: Balanced after 4 trials
     0:00:00: Reservoir R1 is emptying
     0:00:00: Tank T3 is filling at 2.99 m
     0:00:00: Tank T1 is emptying at 2.99 m
     0:00:00: Tank T7 is filling at 2.49 m
     0:00:00: Tank T6 is filling at 5.19 m
     0:00:00: Tank T5 is filling at 1.00 m
     0:00:00: Tank T2 is filling at 0.50 m
     0:00:00: Tank T4 is filling at 2.50 m
   
   
  Hydraulic Status:
  -----------------------------------------------------------------------
     0:00:00: Balanced after 4 trials
     0:00:00: Reservoir R1 is emptying
     0:00:00: Tank T3 is filling at 3.00 m
     0:00:00: Tank T1 is emptying at 3.00 m
     0:00:00: Tank T7 is filling at 2.50 m
     0:00:00: Tank T6 is filling at 5.16 m
     0:00:00: Tank T5 is filling at 1.00 m
     0:00:00: Tank T2 is filling at 0.50 m
     0:00:00: Tank T4 is filling at 2.49 m
   
   
  Hydraulic Status:
  -----------------------------------------------------------------------
     0:00:00: Balanced after 4 trials
     0:00:00: Reservoir R1 is emptying
     0:00:00: Tank T3 is filling at 3.01 m
     0:00:00: Tank T1 is emptying at 3.00 m
     0:00:00: Tank T7 is filling at 2.51 m
     0:00:00: Tank T6 is filling at 5.22 m
     0:00:00: Tank T5 is filling at 1.00 m
     0:00:00: Tank T2 is filling at 0.50 m
     0:00:00: Tank T4 is filling at 2.50 m
   
   
  Hydraulic Status:
  -----------------------------------------------------------------------
     0:00:00: Balanced after 4 trials
     0:00:00: Reservoir R1 is emptying
     0:00:00: Tank T3 is filling at 3.00 m
     0:00:00: Tank T1 is emptying at 3.00 m
     0:00:00: Tank T7 is filling at 2.50 m
     0:00:00: Tank T6 is filling at 5.21 m
     0:00:00: Tank T5 is filling at 0.99 m
     0:00:00: Tank T2 is filling at 0.50 m
     0:00:00: Tank T4 is filling at 2.50 m
   
   
  Hydraulic Status:
  -----------------------------------------------------------------------
     0:00:00: Balanced after 4 trials
     0:00:00: Reservoir R1 is emptying
     0:00:00: Tank T3 is filling at 3.00 m
     0:00:00: Tank T1 is emptying at 3.01 m
     0:00:00: Tank T7 is filling at 2.51 m
     0:00:00: Tank T6 is filling at 5.22 m
     0:00:00: Tank T5 is filling at 1.00 m
     0:00:00: Tank T2 is filling at 0.50 m
     0:00:00: Tank T4 is filling at 2.49 m
   
   
  Hydraulic Status:
  -----------------------------------------------------------------------
     0:00:00: Balanced after 4 trials
     0:00:00: Reservoir R1 is emptying
     0:00:00: Tank T3 is filling at 3.00 m
     0:00:00: Tank T1 is emptying at 2.99 m
     0:00:00: Tank T7 is filling at 2.50 m
     0:00:00: Tank T6 is filling at 5.19 m
     0:00:00: Tank T5 is filling at 1.00 m
     0:00:00: Tank T2 is filling at 0.50 m
     0:00:00: Tank T4 is filling at 2.50 m
   
   
  Hydraulic Status:
  -----------------------------------------------------------------------
     0:00:00: Balanced after 4 trials
     0:00:00: Reservoir R1 is emptying
     0:00:00: Tank T3 is filling at 3.01 m
     0:00:00: Tank T1 is emptying at 3.00 m
     0:00:00: Tank T7 is filling at 2.49 m
     0:00:00: Tank T6 is filling at 5.22 m
     0:00:00: Tank T5 is filling at 1.00 m
     0:00:00: Tank T2 is filling at 0.50 m
     0:00:00: Tank T4 is filling at 2.50 m
   
   
  Hydraulic Status:
  -----------------------------------------------------------------------
     0:00:00: Balanced after 4 trials
     0:00:00: Reservoir R1 is emptying
     0:00:00: Tank T3 is filling at 3.00 m
     0:00:00: Tank T1 is emptying at 3.01 m
     0:00:00: Tank T7 is filling at 2.50 m
     0:00:00: Tank T6 is filling at 5.15 m
     0:00:00: Tank T5 is filling at 1.01 m
     0:00:00: Tank T2 is filling at 0.50 m
     0:00:00: Tank T4 is filling at 2.47 m
   
   
  Hydraulic Status:
  -----------------------------------------------------------------------
     0:00:00: Balanced after 4 trials
     0:00:00: Reservoir R1 is emptying
     0:00:00: Tank T3 is filling at 3.01 m
     0:00:00: Tank T1 is emptying at 2.99 m
     0:00:00: Tank T7 is filling at 2.49 m
     0:00:00: Tank T6 is filling at 5.17 m
     0:00:00: Tank T5 is filling at 1.00 m
     0:00:00: Tank T2 is filling at 0.50 m
     0:00:00: Tank T4 is filling at 2.49 m
   
   
  Hydraulic Status:
  -----------------------------------------------------------------------
     0:00