  Page 1                                    Thu Oct 31 12:05:25 2019

  ******************************************************************
  *                           E P A N E T                          *
  *                   Hydraulic and Water Quality                  *
  *                   Analysis for Pipe Networks                   *
  *                         Version 2.1                            *
  ******************************************************************
  
  Analysis begun Thu Oct 31 12:05:25 2019

   
  Hydraulic Status:
  -----------------------------------------------------------------------
     0:00:00: Balancing the network:
              Trial  1: relative flow change = 0.671842
              Trial  2: relative flow change = 0.316325
              Trial  3: relative flow change = 0.091602
              Trial  4: relative flow change = 0.006546
              Trial  5: relative flow change = 0.000032
              Trial  6: relative flow change = 0.000000
     0:00:00: Balanced after 6 trials
     0:00:00: Reservoir R1 is emptying
     0:00:00: Tank T3 is filling at 4.00 ft
   
   
  Hydraulic Status:
  -----------------------------------------------------------------------
     0:00:00: Balancing the network:
              Trial  1: relative flow change = 0.671530
              Trial  2: relative flow change = 0.317237
              Trial  3: relative flow change = 0.092001
              Trial  4: relative flow change = 0.006591
              Trial  5: relative flow change = 0.000033
              Trial  6: relative flow change = 0.000000
     0:00:00: Balanced after 6 trials
     0:00:00: Reservoir R1 is emptying
     0:00:00: Tank T3 is filling at 4.00 ft
   
   
  Hydraulic Status:
  -----------------------------------------------------------------------
     0:00:00: Balancing the network:
              Trial  1: relative flow change = 0.669783
              Trial  2: relative flow change = 0.318394
              Trial  3: relative flow change = 0.092140
              Trial  4: relative flow change = 0.006569
              Trial  5: relative flow change = 0.000032
              Trial  6: relative flow change = 0.000000
     0:00:00: Balanced after 6 trials
     0:00:00: Reservoir R1 is emptying
     0:00:00: Tank T3 is filling at 4.02 ft
   
   
  Hydraulic Status:
  -----------------------------------------------------------------------
     0:00:00: Balancing the network:
              Trial  1: relative flow change = 0.673867
              Trial  2: relative flow change = 0.313311
              Trial  3: relative flow change = 0.090559
              Trial  4: relative flow change = 0.006458
              Trial  5: relative flow change = 0.000032
              Trial  6: relative flow change = 0.000000
     0:00:00: Balanced after 6 trials
     0:00:00: Reservoir R1 is emptying
     0:00:00: Tank T3 is filling at 4.02 ft
   
   
  Hydraulic Status:
  -----------------------------------------------------------------------
     0:00:00: Balancing the network:
              Trial  1: relative flow change = 0.670772
              Trial  2: relative flow change = 0.317181
              Trial  3: relative flow change = 0.091762
              Trial  4: relative flow change = 0.006543
              Trial  5: relative flow change = 0.000032
              Trial  6: relative flow change = 0.000000
     0:00:00: Balanced after 6 trials
     0:00:00: Reservoir R1 is emptying
     0:00:00: Tank T3 is filling at 3.99 ft
   
   
  Hydraulic Status:
  -----------------------------------------------------------------------
     0:00:00: Balancing the network:
              Trial  1: relative flow change = 0.671723
              Trial  2: relative flow change = 0.316934
              Trial  3: relative flow change = 0.091892
              Trial  4: relative flow change = 0.006581
              Trial  5: relative flow change = 0.000033
              Trial  6: relative flow change = 0.000000
     0:00:00: Balanced after 6 trials
     0:00:00: Reservoir R1 is emptying
     0:00:00: Tank T3 is filling at 4.00 ft
   
   
  Hydraulic Status:
  -----------------------------------------------------------------------
     0:00:00: Balancing the network:
              Trial  1: relative flow change = 0.672821
              Trial  2: relative flow change = 0.314365
              Trial  3: relative flow change = 0.090832
              Trial  4: relative flow change = 0.006470
              Trial  5: relative flow change = 0.000032
              Trial  6: relative flow change = 0.000000
     0:00:00: Balanced after 6 trials
     0:00:00: Reservoir R1 is emptying
     0:00:00: Tank T3 is filling at 4.01 ft
   
   
  Hydraulic Status:
  -----------------------------------------------------------------------
     0:00:00: Balancing the network:
              Trial  1: relative flow change = 0.671880
              Trial  2: relative flow change = 0.315367
              Trial  3: relative flow change = 0.091104
              Trial  4: relative flow change = 0.006483
              Trial  5: relative flow change = 0.000032
              Trial  6: relative flow change = 0.000000
     0:00:00: Balanced after 6 trials
     0:00:00: Reservoir R1 is emptying
     0:00:00: Tank T3 is filling at 4.00 ft
   
   
  Hydraulic Status:
  -----------------------------------------------------------------------
     0:00:00: Balancing the network:
              Trial  1: relative flow change = 0.671664
              Trial  2: relative flow change = 0.316928
              Trial  3: relative flow change = 0.091876
              Trial  4: relative flow change = 0.006578
              Trial  5: relative flow change = 0.000032
              Trial  6: relative flow change = 0.000000
     0:00:00: Balanced after 6 trials
     0:00:00: Reservoir R1 is emptying
     0:00:00: Tank T3 is filling at 4.02 ft
   
   
  Hydraulic Status:
  -----------------------------------------------------------------------
     0:00:00: Balancing the network:
              Trial  1: relative flow change = 0.668186
              Trial  2: relative flow change = 0.320798
              Trial  3: relative flow change = 0.092973
              Trial  4: relative flow change = 0.006639
              Trial  5: relative flow change = 0.000033
              Trial  6: relative flow change = 0.000000
     0:00:00: Balanced after 6 trials
     0:00:00: Reservoir R1 is emptying
     0:00:00: Tank T3 is filling at 3.99 ft
   
   
  Hydraulic Status:
  -----------------------------------------------------------------------
     0:00:00: Balancing the network:
              Trial  1: relative flow change = 0.669229
              Trial  2: relative flow change = 0.320003
              Trial  3: relative flow change = 0.092840
              Trial  4: relative flow change = 0.006646
              Trial  5: relative flow change = 0.000033
              Trial  6: relative flow change = 0.000000
     0:00:00: Balanced after 6 trials
     0:00:00: Reservoir R1 is emptying
     0:00:00: Tank T3 is filling at 4.01 ft
   
   
  Hydraulic Status:
  -----------------------------------------------------------------------
     0:00:00: Balancing the network:
              Trial  1: relative flow change = 0.673025
              Trial  2: relative flow change = 0.314484
              Trial  3: relative flow change = 0.090949
              Trial  4: relative flow change = 0.006489
              Trial  5: relative flow change = 0.000032
              Trial  6: relative flow change = 0.000000
     0:00:00: Balanced after 6 trials
     0:00:00: Reservoir R1 is emptying
     0:00:00: Tank T3 is filling at 4.00 ft
   
   
  Hydraulic Status:
  -----------------------------------------------------------------------
     0:00:00: Balancing the network:
              Trial  1: relative flow change = 0.668915
              Trial  2: relative flow change = 0.320295
              Trial  3: relative flow change = 0.092912
              Trial  4: relative flow change = 0.006648
              Trial  5: relative flow change = 0.000033
              Trial  6: relative flow change = 0.000000
     0:00:00: Balanced after 6 trials
     0:00:00: Reservoir R1 is emptying
     0:00:00: Tank T3 is filling at 4.02 ft
   
   
  Hydraulic Status:
  -----------------------------------------------------------------------
     0:00:00: Balancing the network:
              Trial  1: relative flow change = 0.670157
              Trial  2: relative flow change = 0.316206
              Trial  3: relative flow change = 0.091077
              Trial  4: relative flow change = 0.006441
              Trial  5: relative flow change = 0.000031
              Trial  6: relative flow change = 0.000000
     0:00:00: Balanced after 6 trials
     0:00:00: Reservoir R1 is emptying
     0:00:00: Tank T3 is filling at 3.98 ft
   
   
  Hydraulic Status:
  -----------------------------------------------------------------------
     0:00:00: Balancing the network:
              Trial  1: relative flow change = 0.672058
              Trial  2: relative flow change = 0.316408
              Trial  3: relative flow change = 0.091705
              Trial  4: relative flow change = 0.006564
              Trial  5: relative flow change = 0.000032
              Trial  6: relative flow change = 0.000000
     0:00:00: Balanced after 6 trials
     0:00:00: Reservoir R1 is emptying
     0:00:00: Tank T3 is filling at 4.00 ft
   
   
  Hydraulic Status:
  -----------------------------------------------------------------------
     0:00:00: Balancing the network:
              Trial  1: relative flow change = 0.671711
              Trial  2: relative flow change = 0.317841
              Trial  3: relative flow change = 0.092371
              Trial  4: relative flow change = 0.006642
              Trial  5: relative flow change = 0.000033
              Trial  6: relative flow change = 0.000000
     0:00:00: Balanced after 6 trials
     0:00:00: Reservoir R1 is emptying
     0:00:00: Tank T3 is filling at 4.00 ft
   
   
  Hydraulic Status:
  -----------------------------------------------------------------------
     0:00:00: Balancing the network:
              Trial  1: relative flow change = 0.672427
              Trial  2: relative flow change = 0.316471
              Trial  3: relative flow change = 0.091832
              Trial  4: relative flow change = 0.006589
              Trial  5: relative flow change = 0.000033
              Trial  6: relative flow change = 0.000000
     0:00:00: Balanced after 6 trials
     0:00:00: Reservoir R1 is emptying
     0:00:00: Tank T3 is filling at 3.96 ft
   
   
  Hydraulic Status:
  -----------------------------------------------------------------------
     0:00:00: Balancing the network:
              Trial  1: relative flow change = 0.672229
              Trial  2: relative flow change = 0.316451
              Trial  3: relative flow change = 0.091778
              Trial  4: relative flow change = 0.006578
              Trial  5: relative flow change = 0.000033
              Trial  6: relative flow change = 0.000000
     0:00:00: Balanced after 6 trials
     0:00:00: Reservoir R1 is emptying
     0:00:00: Tank T3 is filling at 4.02 ft
   
   
  Hydraulic Status:
  -----------------------------------------------------------------------
     0:00:00: Balancing the network:
              Trial  1: relative flow change = 0.670239
              Trial  2: relative flow change = 0.318078
              Trial  3: relative flow change = 0.092101
              Trial  4: relative flow change = 0.006575
              Trial  5: relative flow change = 0.000032
              Trial  6: relative flow change = 0.000000
     0:00:00: Balanced after 6 trials
     0:00:00: Reservoir R1 is emptying
     0:00:00: Tank T3 is filling at 4.04 ft
   
   
  Hydraulic Status:
  -----------------------------------------------------------------------
     0:00:00: Balancing the network:
              Trial  1: relative flow change = 0.670529
              Trial  2: relative flow change = 0.318196
              Trial  3: relative flow change = 0.092235
              Trial  4: relative flow change = 0.006598
              Trial  5: relative flow change = 0.000033
              Trial  6: relative flow change = 0.000000
     0:00:00: Balanced after 6 trials
     0:00:00: Reservoir R1 is emptying
     0:00:00: Tank T3 is filling at 4.00 ft
   
   
  Hydraulic Status:
  -----------------------------------------------------------------------
     0:00:00: Balancing the network:
              Trial  1: relative flow change = 0.670530
              Trial  2: relative flow change = 0.318217
              Trial  3: relative flow change = 0.092248
              Trial  4: relative flow change = 0.006600
              Trial  5: relative flow change = 0.000033
              Trial  6: relative flow change = 0.000000
     0:00:00: Balanced after 6 trials
     0:00:00: Reservoir R1 is emptying
     0:00:00: Tank T3 is filling at 4.00 ft
   
   
  Hydraulic Status:
  -----------------------------------------------------------------------
     0:00:00: Balancing the network:
              Trial  1: relative flow change = 0.671229
              Trial  2: relative flow change = 0.317226
              Trial  3: relative flow change = 0.091911
              Trial  4: relative flow change = 0.006572
              Trial  5: relative flow change = 0.000032
              Trial  6: relative flow change = 0.000000
     0:00:00: Balanced after 6 trials
     0:00:00: Reservoir R1 is emptying
     0:00:00: Tank T3 is filling at 3.99 ft
   
   
  Hydraulic Status:
  -----------------------------------------------------------------------
     0:00:00: Balancing the network:
              Trial  1: relative flow change = 0.672712
              Trial  2: relative flow change = 0.314478
              Trial  3: relative flow change = 0.090861
              Trial  4: relative flow change = 0.006471
              Trial  5: relative flow change = 0.000032
              Trial  6: relative flow change = 0.000000
     0:00:00: Balanced after 6 trials
     0:00:00: Reservoir R1 is emptying
     0:00:00: Tank T3 is filling at 4.01 ft
   
   
  Hydraulic Status:
  -----------------------------------------------------------------------
     0:00:00: Balancing the network:
              Trial  1: relative flow change = 0.671029
              Trial  2: relative flow change = 0.317118
              Trial  3: relative flow change = 0.091799
              Trial  4: relative flow change = 0.006553
              Trial  5: relative flow change = 0.000032
              Trial  6: relative flow change = 0.000000
     0:00:00: Balanced after 6 trials
     0:00:00: Reservoir R1 is emptying
     0:00:00: Tank T3 is filling at 3.99 ft
   
   
  Hydraulic Status:
  -----------------------------------------------------------------------
     0:00:00: Balancing the network:
              Trial  1: relative flow change = 0.670188
              Trial  2: relative flow change = 0.318349
              Trial  3: relative flow change = 0.092223
              Trial  4: relative flow change = 0.006588
              Trial  5: relative flow change = 0.000032
              Trial  6: relative flow change = 0.000000
     0:00:00: Balanced after 6 trials
     0:00:00: Reservoir R1 is emptying
     0:00:00: Tank T3 is filling at 4.00 ft
   
   
  Hydraulic Status:
  -----------------------------------------------------------------------
     0:00:00: Balancing the network:
              Trial  1: relative flow change = 0.671162
              Trial  2: relative flow change = 0.316733
              Trial  3: relative flow change = 0.091637
              Trial  4: relative flow change = 0.006536
              Trial  5: relative flow change = 0.000032
              Trial  6: relative flow change = 0.000000
     0:00:00: Balanced after 6 trials
     0:00:00: Reservoir R1 is emptying
     0:00:00: Tank T3 is filling at 4.03 ft
   
   
  Hydraulic Status:
  -----------------------------------------------------------------------
     0:00:00: Balancing the network:
              Trial  1: relative flow change = 0.671120
              Trial  2: relative flow change = 0.317953
              Trial  3: relative flow change = 0.092266
              Trial  4: relative flow change = 0.006615
              Trial  5: relative flow change = 0.000033
              Trial  6: relative flow change = 0.000000
     0:00:00: Balanced after 6 trials
     0:00:00: Reservoir R1 is emptying
     0:00:00: Tank T3 is filling at 3.99 ft
   
   
  Hydraulic Status:
  -----------------------------------------------------------------------
     0:00:00: Balancing the network:
              Trial  1: relative flow change = 0.671896
              Trial  2: relative flow change = 0.318066
              Trial  3: relative flow change = 0.092541
              Trial  4: relative flow change = 0.006669
              Trial  5: relative flow change = 0.000033
              Trial  6: relative flow change = 0.000000
     0:00:00: Balanced after 6 trials
     0:00:00: Reservoir R1 is emptying
     0:00:00: Tank T3 is filling at 3.99 ft
   
   
  Hydraulic Status:
  -----------------------------------------------------------------------
     0:00:00: Balancing the network:
              Trial  1: relative flow change = 0.671657
              Trial  2: relative flow change = 0.315429
              Trial  3: relative flow change = 0.091076
              Trial  4: relative flow change = 0.006475
              Trial  5: relative flow change = 0.000032
              Trial  6: relative flow change = 0.000000
     0:00:00: Balanced after 6 trials
     0:00:00: Reservoir R1 is emptying
     0:00:00: Tank T3 is filling at 4.00 ft
   
   
  Hydraulic Status:
  -----------------------------------------------------------------------
     0:00:00: Balancing the network:
              Trial  1: relative flow change = 0.671602
              Trial  2: relative flow change = 0.316748
              Trial  3: relative flow change = 0.091760
              Trial  4: relative flow change = 0.006561
              Trial  5: relative flow change = 0.000032
              Trial  6: relative flow change = 0.000000
     0:00:00: Balanced after 6 trials
     0:00:00: Reservoir R1 is emptying
     0:00:00: Tank T3 is filling at 4.00 ft
   
   
  Hydraulic Status:
  -----------------------------------------------------------------------
     0:00:00: Balancing the network:
              Trial  1: relative flow change = 0.672046
              Trial  2: relative flow change = 0.314734
              Trial  3: relative flow change = 0.090818
              Trial  4: relative flow change = 0.006451
              Trial  5: relative flow change = 0.000031
              Trial  6: relative flow change = 0.000000
     0:00:00: Balanced after 6 trials
     0:00:00: Reservoir R1 is emptying
     0:00:00: Tank T3 is filling at 4.02 ft
   
   
  Hydraulic Status:
  -----------------------------------------------------------------------
     0:00:00: Balancing the network:
              Trial  1: relative flow change = 0.671339
              Trial  2: relative flow change = 0.317850
              Trial  3: relative flow change = 0.092280
              Trial  4: relative flow change = 0.006623
              Trial  5: relative flow change = 0.000033
              Trial  6: relative flow change = 0.000000
     0:00:00: Balanced after 6 trials
     0:00:00: Reservoir R1 is emptying
     0:00:00: Tank T3 is filling at 4.03 ft
   
   
  Hydraulic Status:
  -----------------------------------------------------------------------
     0:00:00: Balancing the network:
              Trial  1: relative flow change = 0.673421
              Trial  2: relative flow change = 0.315365
              Trial  3: relative flow change = 0.091521
              Trial  4: relative flow change = 0.006572
              Trial  5: relative flow change = 0.000033
              Trial  6: relative flow change = 0.000000
     0:00:00: Balanced after 6 trials
     0:00:00: Reservoir R1 is emptying
     0:00:00: Tank T3 is filling at 3.98 ft
   
   
  Hydraulic Status:
  -----------------------------------------------------------------------
     0:00:00: Balancing the network:
              Trial  1: relative flow change = 0.672276
              Trial  2: relative flow change = 0.314332
              Trial  3: relative flow change = 0.090663
              Trial  4: relative flow change = 0.006436
              Trial  5: relative flow change = 0.000031
              Trial  6: relative flow change = 0.000000
     0:00:00: Balanced after 6 trials
     0:00:00: Reservoir R1 is emptying
     0:00:00: Tank T3 is filling at 3.99 ft
   
   
  Hydraulic Status:
  -----------------------------------------------------------------------
     0:00:00: Balancing the network:
              Trial  1: relative flow change = 0.673212
              Trial  2: relative flow change = 0.315917
              Trial  3: relative flow change = 0.091762
              Trial  4: relative flow change = 0.006598
              Trial  5: relative flow change = 0.000033
              Trial  6: relative flow change = 0.000000
     0:00:00: Balanced after 6 trials
     0:00:00: Reservoir R1 is emptying
     0:00:00: Tank T3 is filling at 4.01 ft
   
   
  Hydraulic Status:
  -----------------------------------------------------------------------
     0:00:00: Balancing the network:
              Trial  1: relative flow change = 0.674305
              Trial  2: relative flow change = 0.312227
              Trial  3: relative flow change = 0.090100
              Trial  4: relative flow change = 0.006409
              Trial  5: relative flow change = 0.000031
              Trial  6: relative flow change = 0.000000
     0:00:00: Balanced after 6 trials
     0:00:00: Reservoir R1 is emptying
     0:00:00: Tank T3 is filling at 3.99 ft
   
   
  Hydraulic Status:
  -----------------------------------------------------------------------
     0:00:00: Balancing the network:
              Trial  1: relative flow change = 0.670465
              Trial  2: relative flow change = 0.318199
              Trial  3: relative flow change = 0.092225
              Trial  4: relative flow change = 0.006596
              Trial  5: relative flow change = 0.000032
              Trial  6: relative flow change = 0.000000
     0:00:00: Balanced after 6 trials
     0:00:00: Reservoir R1 is emptying
     0:00:00: Tank T3 is filling at 4.03 ft
   
   
  Hydraulic Status:
  -----------------------------------------------------------------------
     0:00:00: Balancing the network:
              Trial  1: relative flow change = 0.671839
              Trial  2: relative flow change = 0.317075
              Trial  3: relative flow change = 0.092004
              Trial  4: relative flow change = 0.006598
              Trial  5: relative flow change = 0.000033
              Trial  6: relative flow change = 0.000000
     0:00:00: Balanced after 6 trials
     0:00:00: Reservoir R1 is emptying
     0:00:00: Tank T3 is filling at 4.03 ft
   
   
  Hydraulic Status:
  -----------------------------------------------------------------------
     0:00:00: Balancing the network:
              Trial  1: relative flow change = 0.672614
              Trial  2: relative flow change = 0.315408
              Trial  3: relative flow change = 0.091328
              Trial  4: relative flow change = 0.006529
              Trial  5: relative flow change = 0.000032
              Trial  6: relative flow change = 0.000000
     0:00:00: Balanced after 6 trials
     0:00:00: Reservoir R1 is emptying
     0:00:00: Tank T3 is filling at 4.01 ft
   
   
  Hydraulic Status:
  -----------------------------------------------------------------------
     0:00:00: Balancing the network:
              Trial  1: relative flow change = 0.671176
              Trial  2: relative flow change = 0.318799
              Trial  3: relative flow change = 0.092736
              Trial  4: relative flow change = 0.006677
              Trial  5: relative flow change = 0.000033
              Trial  6: relative flow change = 0.000000
     0:00:00: Balanced after 6 trials
     0:00:00: Reservoir R1 is emptying
     0:00:00: Tank T3 is filling at 4.01 ft
   
   
  Hydraulic Status:
  -----------------------------------------------------------------------
     0:00:00: Balancing the network:
              Trial  1: relative flow change = 0.674319
              Trial  2: relative flow change = 0.315026
              Trial  3: relative flow change = 0.091589
              Trial  4: relative flow change = 0.006601
              Trial  5: relative flow change = 0.000033
              Trial  6: relative flow change = 0.000000
     0:00:00: Balanced after 6 trials
     0:00:00: Reservoir R1 is emptying
     0:00:00: Tank T3 is filling at 3.99 ft
   
   
  Hydraulic Status:
  -----------------------------------------------------------------------
     0:00:00: Balancing the network:
              Trial  1: relative flow change = 0.671972
              Trial  2: relative flow change = 0.316227
              Trial  3: relative flow change = 0.091587
              Trial  4: relative flow change = 0.006547
              Trial  5: relative flow change = 0.000032
              Trial  6: relative flow change = 0.000000
     0:00:00: Balanced after 6 trials
     0:00:00: Reservoir R1 is emptying
     0:00:00: Tank T3 is filling at 4.01 ft
   
   
  Hydraulic Status:
  -----------------------------------------------------------------------
     0:00:00: Balancing the network:
              Trial  1: relative flow change = 0.671332
              Trial  2: relative flow change = 0.315228
              Trial  3: relative flow change = 0.090885
              Trial  4: relative flow change = 0.006443
              Trial  5: relative flow change = 0.000031
              Trial  6: relative flow change = 0.000000
     0:00:00: Balanced after 6 trials
     0:00:00: Reservoir R1 is emptying
     0:00:00: Tank T3 is filling at 4.02 ft
   
   
  Hydraulic Status:
  -----------------------------------------------------------------------
     0:00:00: Balancing the network:
              Trial  1: relative flow change = 0.671402
              Trial  2: relative flow change = 0.316594
              Trial  3: relative flow change = 0.091624
              Trial  4: relative flow change = 0.006539
              Trial  5: relative flow change = 0.000032
              Trial  6: relative flow change = 0.000000
     0:00:00: Balanced after 6 trials
     0:00:00: Reservoir R1 is emptying
     0:00:00: Tank T3 is filling at 4.00 ft
   
   
  Hydraulic Status:
  -----------------------------------------------------------------------
     0:00:00: Balancing the network:
              Trial  1: relative flow change = 0.671193
              Trial  2: relative flow change = 0.316359
              Trial  3: relative flow change = 0.091448
              Trial  4: relative flow change = 0.006512
              Trial  5: relative flow change = 0.000032
              Trial  6: relative flow change = 0.000000
     0:00:00: Balanced after 6 trials
     0:00:00: Reservoir R1 is emptying
     0:00:00: Tank T3 is filling at 4.03 ft
   
   
  Hydraulic Status:
  -----------------------------------------------------------------------
     0:00:00: Balancing the network:
              Trial  1: relative flow change = 0.672398
              Trial  2: relative flow change = 0.314929
              Trial  3: relative flow change = 0.091015
              Trial  4: relative flow change = 0.006484
              Trial  5: relative flow change = 0.000032
              Trial  6: relative flow change = 0.000000
     0:00:00: Balanced after 6 trials
     0:00:00: Reservoir R1 is emptying
     0:00:00: Tank T3 is filling at 4.01 ft
   
   
  Hydraulic Status:
  -----------------------------------------------------------------------
     0:00:00: Balancing the network:
              Trial  1: relative flow change = 0.671467
              Trial  2: relative flow change = 0.315857
              Trial  3: relative flow change = 0.091251
              Trial  4: relative flow change = 0.006493
              Trial  5: relative flow change = 0.000032
              Trial  6: relative flow change = 0.000000
     0:00:00: Balanced after 6 trials
     0:00:00: Reservoir R1 is emptying
     0:00:00: Tank T3 is filling at 4.00 ft
   
   
  Hydraulic Status:
  -----------------------------------------------------------------------
     0:00:00: Balancing the network:
              Trial  1: relative flow change = 0.672021
              Trial  2: relative flow change = 0.316135
              Trial  3: relative flow change = 0.091551
              Trial  4: relative flow change = 0.006544
              Trial  5: relative flow change = 0.000032
              Trial  6: relative flow change = 0.000000
     0:00:00: Balanced after 6 trials
     0:00:00: Reservoir R1 is emptying
     0:00:00: Tank T3 is filling at 4.01 ft
   
   
  Hydraulic Status:
  -----------------------------------------------------------------------
     0:00:00: Balancing the network:
              Trial  1: relative flow change = 0.671842
              Trial  2: relative flow change = 0.317780
              Trial  3: relative flow change = 0.092378
              Trial  4: relative flow change = 0.006647
              Trial  5: relative flow change = 0.000033
              Trial  6: relative flow change = 0.000000
     0:00:00: Balanced after 6 trials
     0:00:00: Reservoir R1 is emptying
     0:00:00: Tank T3 is filling at 4.02 ft
   
   
  Hydraulic Status:
  -----------------------------------------------------------------------
     0:00:00: Balancing the network:
              Trial  1: relative flow change = 0.670530
              Trial  2: relative flow change = 0.317460
              Trial  3: relative flow change = 0.091844
              Trial  4: relative flow change = 0.006548
              Trial  5: relative flow change = 0.000032
              Trial  6: relative flow change = 0.000000
     0:00:00: Balanced after 6 trials
     0:00:00: Reservoir R1 is emptying
     0:00:00: Tank T3 is filling at 3.99 ft
   
   
  Hydraulic Status:
  -----------------------------------------------------------------------
     0:00:00: Balancing the network:
              Trial  1: relative flow change = 0.670663
              Trial  2: relative flow change = 0.317640
              Trial  3: relative flow change = 0.091977
              Trial  4: relative flow change = 0.006568
              Trial  5: relative flow change = 0.000032
              Trial  6: relative flow change = 0.000000
     0:00:00: Balanced after 6 trials
     0:00:00: Reservoir R1 is emptying
     0:00:00: Tank T3 is filling at 4.00 ft
   
   
  Hydraulic Status:
  -----------------------------------------------------------------------
     0:00:00: Balancing the network:
              Trial  1: relative flow change = 0.673001
              Trial  2: relative flow change = 0.315571
              Trial  3: relative flow change = 0.091525
              Trial  4: relative flow change = 0.006563
              Trial  5: relative flow change = 0.000033
              Trial  6: relative flow change = 0.000000
     0:00:00: Balanced after 6 trials
     0:00:00: Reservoir R1 is emptying
     0:00:00: Tank T3 is filling at 4.04 ft
   
   
  Hydraulic Status:
  -----------------------------------------------------------------------
     0:00:00: Balancing the network:
              Trial  1: relative flow change = 0.672162
              Trial  2: relative flow change = 0.316843
              Trial  3: relative flow change = 0.091963
              Trial  4: relative flow change = 0.006600
              Trial  5: relative flow change = 0.000033
              Trial  6: relative flow change = 0.000000
     0:00:00: Balanced after 6 trials
     0:00:00: Reservoir R1 is emptying
     0:00:00: Tank T3 is filling at 3.99 ft
   
   
  Hydraulic Status:
  -----------------------------------------------------------------------
     0:00:00: Balancing the network:
              Trial  1: relative flow change = 0.673161
              Trial  2: relative flow change = 0.314938
              Trial  3: relative flow change = 0.091229
              Trial  4: relative flow change = 0.006528
              Trial  5: relative flow change = 0.000032
              Trial  6: relative flow change = 0.000000
     0:00:00: Balanced after 6 trials
     0:00:00: Reservoir R1 is emptying
     0:00:00: Tank T3 is filling at 4.01 ft
   
   
  Hydraulic Status:
  -----------------------------------------------------------------------
     0:00:00: Balancing the network:
              Trial  1: relative flow change = 0.673235
              Trial  2: relative flow change = 0.315246
              Trial  3: relative flow change = 0.091412
              Trial  4: relative flow change = 0.006554
              Trial  5: relative flow change = 0.000032
              Trial  6: relative flow change = 0.000000
     0:00:00: Balanced after 6 trials
     0:00:00: Reservoir R1 is emptying
     0:00:00: Tank T3 is filling at 4.01 ft
   
   
  Hydraulic Status:
  -----------------------------------------------------------------------
     0:00:00: Balancing the network:
              Trial  1: relative flow change = 0.672095
              Trial  2: relative flow change = 0.316579
              Trial  3: relative flow change = 0.091810
              Trial  4: relative flow change = 0.006579
              Trial  5: relative flow change = 0.000033
              Trial  6: relative flow change = 0.000000
     0:00:00: Balanced after 6 trials
     0:00:00: Reservoir R1 is emptying
     0:00:00: Tank T3 is filling at 4.02 ft
   
   
  Hydraulic Status:
  -----------------------------------------------------------------------
     0:00:00: Balancing the network:
              Trial  1: relative flow change = 0.670198
              Trial  2: relative flow change = 0.318132
              Trial  3: relative flow change = 0.092112
              Trial  4: relative flow change = 0.006575
              Trial  5: relative flow change = 0.000032
              Trial  6: relative flow change = 0.000000
     0:00:00: Balanced after 6 trials
     0:00:00: Reservoir R1 is emptying
     0:00:00: Tank T3 is filling at 4.01 ft
   
   
  Hydraulic Status:
  -----------------------------------------------------------------------
     0:00:00: Balancing the network:
              Trial  1: relative flow change = 0.672787
              Trial  2: relative flow change = 0.315556
              Trial  3: relative flow change = 0.091445
              Trial  4: relative flow change = 0.006547
              Trial  5: relative flow change = 0.000032
              Trial  6: relative flow change = 0.000000
     0:00:00: Balanced after 6 trials
     0:00:00: Reservoir R1 is emptying
     0:00:00: Tank T3 is filling at 3.96 ft
   
   
  Hydraulic Status:
  -----------------------------------------------------------------------
     0:00:00: Balancing the network:
              Trial  1: relative flow change = 0.671396
              Trial  2: relative flow change = 0.316707
              Trial  3: relative flow change = 0.091680
              Trial  4: relative flow change = 0.006546
              Trial  5: relative flow change = 0.000032
              Trial  6: relative flow change = 0.000000
     0:00:00: Balanced after 6 trials
     0:00:00: Reservoir R1 is emptying
     0:00:00: Tank T3 is filling at 3.99 ft
   
   
  Hydraulic Status:
  -----------------------------------------------------------------------
     0:00:00: Balancing the network:
              Trial  1: relative flow change = 0.671730
              Trial  2: relative flow change = 0.315687
              Trial  3: relative flow change = 0.091234
              Trial  4: relative flow change = 0.006497
              Trial  5: relative flow change = 0.000032
              Trial  6: relative flow change = 0.000000
     0:00:00: Balanced after 6 trials
     0:00:00: Reservoir R1 is emptying
     0:00:00: Tank T3 is filling at 4.01 ft
   
   
  Hydraulic Status:
  -----------------------------------------------------------------------
     0:00:00: Balancing the network:
              Trial  1: relative flow change = 0.670951
              Trial  2: relative flow change = 0.317967
              Trial  3: relative flow change = 0.092230
              Trial  4: relative flow change = 0.006607
              Trial  5: relative flow change = 0.000033
              Trial  6: relative flow change = 0.000000
     0:00:00: Balanced after 6 trials
     0:00:00: Reservoir R1 is emptying
     0:00:00: Tank T3 is filling at 4.00 ft
   
   
  Hydraulic Status:
  -----------------------------------------------------------------------
     0:00:00: Balancing the network:
              Trial  1: relative flow change = 0.672880
              Trial  2: relative flow change = 0.314927
              Trial  3: relative flow change = 0.091149
              Trial  4: relative flow change = 0.006512
              Trial  5: relative flow change = 0.000032
              Trial  6: relative flow change = 0.000000
     0:00:00: Balanced after 6 trials
     0:00:00: Reservoir R1 is emptying
     0:00:00: Tank T3 is filling at 4.03 ft
   
   
  Hydraulic Status:
  -----------------------------------------------------------------------
     0:00:00: Balancing the network:
              Trial  1: relative flow change = 0.671715
              Trial  2: relative flow change = 0.316266
              Trial  3: relative flow change = 0.091540
              Trial  4: relative flow change = 0.006536
              Trial  5: relative flow change = 0.000032
              Trial  6: relative flow change = 0.000000
     0:00:00: Balanced after 6 trials
     0:00:00: Reservoir R1 is emptying
     0:00:00: Tank T3 is filling at 4.02 ft
   
   
  Hydraulic Status:
  -----------------------------------------------------------------------
     0:00:00: Balancing the network:
              Trial  1: relative flow change = 0.671389
              Trial  2: relative flow change = 0.317121
              Trial  3: relative flow change = 0.091901
              Trial  4: relative flow change = 0.006575
              Trial  5: relative flow change = 0.000032
              Trial  6: relative flow change = 0.000000
     0:00:00: Balanced after 6 trials
     0:00:00: Reservoir R1 is emptying
     0:00:00: Tank T3 is filling at 4.01 ft
   
   
  Hydraulic Status:
  -----------------------------------------------------------------------
     0:00:00: Balancing the network:
              Trial  1: relative flow change = 0.671080
              Trial  2: relative flow change = 0.318066
              Trial  3: relative flow change = 0.092318
              Trial  4: relative flow change = 0.006621
              Trial  5: relative flow change = 0.000033
              Trial  6: relative flow change = 0.000000
     0:00:00: Balanced after 6 trials
     0:00:00: Reservoir R1 is emptying
     0:00:00: Tank T3 is filling at 4.00 ft
   
   
  Hydraulic Status:
  -----------------------------------------------------------------------
     0:00:00: Balancing the network:
              Trial  1: relative flow change = 0.670495
              Trial  2: relative flow change = 0.318474
              Trial  3: relative flow change = 0.092369
              Trial  4: relative flow change = 0.006614
              Trial  5: relative flow change = 0.000033
              Trial  6: relative flow change = 0.000000
     0:00:00: Balanced after 6 trials
     0:00:00: Reservoir R1 is emptying
     0:00:00: Tank T3 is filling at 3.98 ft
   
   
  Hydraulic Status:
  -----------------------------------------------------------------------
     0:00:00: Balancing the network:
              Trial  1: relative flow change = 0.671782
              Trial  2: relative flow change = 0.316461
              Trial  3: relative flow change = 0.091663
              Trial  4: relative flow change = 0.006553
              Trial  5: relative flow change = 0.000032
              Trial  6: relative flow change = 0.000000
     0:00:00: Balanced after 6 trials
     0:00:00: Reservoir R1 is emptying
     0:00:00: Tank T3 is filling at 4.03 ft
   
   
  Hydraulic Status:
  -----------------------------------------------------------------------
     0:00:00: Balancing the network:
              Trial  1: relative flow change = 0.673381
              Trial  2: relative flow change = 0.314537
              Trial  3: relative flow change = 0.091073
              Trial  4: relative flow change = 0.006513
              Trial  5: relative flow change = 0.000032
              Trial  6: relative flow change = 0.000000
     0:00:00: Balanced after 6 trials
     0:00:00: Reservoir R1 is emptying
     0:00:00: Tank T3 is filling at 4.00 ft
   
   
  Hydraulic Status:
  -----------------------------------------------------------------------
     0:00:00: Balancing the network:
              Trial  1: relative flow change = 0.672616
              Trial  2: relative flow change = 0.315438
              Trial  3: relative flow change = 0.091338
              Trial  4: relative flow change = 0.006530
              Trial  5: relative flow change = 0.000032
              Trial  6: relative flow change = 0.000000
     0:00:00: Balanced after 6 trials
     0:00:00: Reservoir R1 is emptying
     0:00:00: Tank T3 is filling at 3.98 ft
   
   
  Hydraulic Status:
  -----------------------------------------------------------------------
     0:00:00: Balancing the network:
              Trial  1: relative flow change = 0.672591
              Trial  2: relative flow change = 0.314682
              Trial  3: relative flow change = 0.090936
              Trial  4: relative flow change = 0.006478
              Trial  5: relative flow change = 0.000032
              Trial  6: relative flow change = 0.000000
     0:00:00: Balanced after 6 trials
     0:00:00: Reservoir R1 is emptying
     0:00:00: Tank T3 is filling at 4.01 ft
   
   
  Hydraulic Status:
  -----------------------------------------------------------------------
     0:00:00: Balancing the network:
              Trial  1: relative flow change = 0.669787
              Trial  2: relative flow change = 0.319612
              Trial  3: relative flow change = 0.092785
              Trial  4: relative flow change = 0.006652
              Trial  5: relative flow change = 0.000033
              Trial  6: relative flow change = 0.000000
     0:00:00: Balanced after 6 trials
     0:00:00: Reservoir R1 is emptying
     0:00:00: Tank T3 is filling at 4.00 ft
   
   
  Hydraulic Status:
  -----------------------------------------------------------------------
     0:00:00: Balancing the network:
              Trial  1: relative flow change = 0.672897
              Trial  2: relative flow change = 0.316027
              Trial  3: relative flow change = 0.091730
              Trial  4: relative flow change = 0.006587
              Trial  5: relative flow change = 0.000033
              Trial  6: relative flow change = 0.000000
     0:00:00: Balanced after 6 trials
     0:00:00: Reservoir R1 is emptying
     0:00:00: Tank T3 is filling at 3.99 ft
   
   
  Hydraulic Status:
  -----------------------------------------------------------------------
     0:00:00: Balancing the network:
              Trial  1: relative flow change = 0.670914
              Trial  2: relative flow change = 0.317069
              Trial  3: relative flow change = 0.091744
              Trial  4: relative flow change = 0.006544
              Trial  5: relative flow change = 0.000032
              Trial  6: relative flow change = 0.000000
     0:00:00: Balanced after 6 trials
     0:00:00: Reservoir R1 is emptying
     0:00:00: Tank T3 is filling at 4.01 ft
   
   
  Hydraulic Status:
  -----------------------------------------------------------------------
     0:00:00: Balancing the network:
              Trial  1: relative flow change = 0.672635
              Trial  2: relative flow change = 0.316722
              Trial  3: relative flow change = 0.092028
              Trial  4: relative flow change = 0.006619
              Trial  5: relative flow change = 0.000033
              Trial  6: relative flow change = 0.000000
     0:00:00: Balanced after 6 trials
     0:00:00: Reservoir R1 is emptying
     0:00:00: Tank T3 is filling at 3.99 ft
   
   
  Hydraulic Status:
  -----------------------------------------------------------------------
     0:00:00: Balancing the network:
              Trial  1: relative flow change = 0.670944
              Trial  2: relative flow change = 0.317424
              Trial  3: relative flow change = 0.091936
              Trial  4: relative flow change = 0.006568
              Trial  5: relative flow change = 0.000032
              Trial  6: relative flow change = 0.000000
     0:00:00: Balanced after 6 trials
     0:00:00: Reservoir R1 is emptying
     0:00:00: Tank T3 is filling at 3.98 ft
   
   
  Hydraulic Status:
  -----------------------------------------------------------------------
     0:00:00: Balancing the network:
              Trial  1: relative flow change = 0.672541
              Trial  2: relative flow change = 0.315307
              Trial  3: relative flow change = 0.091248
              Trial  4: relative flow change = 0.006516
              Trial  5: relative flow change = 0.000032
              Trial  6: relative flow change = 0.000000
     0:00:00: Balanced after 6 trials
     0:00:00: Reservoir R1 is emptying
     0:00:00: Tank T3 is filling at 3.97 ft
   
   
  Hydraulic Status:
  -----------------------------------------------------------------------
     0:00:00: Balancing the network:
              Trial  1: relative flow change = 0.672892
              Trial  2: relative flow change = 0.314224
              Trial  3: relative flow change = 0.090773
              Trial  4: relative flow change = 0.006464
              Trial  5: relative flow change = 0.000032
              Trial  6: relative flow change = 0.000000
     0:00:00: Balanced after 6 trials
     0:00:00: Reservoir R1 is emptying
     0:00:00: Tank T3 is filling at 3.99 ft
   
   
  Hydraulic Status:
  -----------------------------------------------------------------------
     0:00:00: Balancing the network:
              Trial  1: relative flow change = 0.672956
              Trial  2: relative flow change = 0.314246
              Trial  3: relative flow change = 0.090802
              Trial  4: relative flow change = 0.006469
              Trial  5: relative flow change = 0.000032
              Trial  6: relative flow change = 0.000000
     0:00:00: Balanced after 6 trials
     0:00:00: Reservoir R1 is emptying
     0:00:00: Tank T3 is filling at 3.99 ft
   
   
  Hydraulic Status:
  -----------------------------------------------------------------------
     0:00:00: Balancing the network:
              Trial  1: relative flow change = 0.671016
              Trial  2: relative flow change = 0.316574
              Trial  3: relative flow change = 0.091510
              Trial  4: relative flow change = 0.006516
              Trial  5: relative flow change = 0.000032
              Trial  6: relative flow change = 0.000000
     0:00:00: Balanced after 6 trials
     0:00:00: Reservoir R1 is emptying
     0:00:00: Tank T3 is filling at 4.01 ft
   
   
  Hydraulic Status:
  -----------------------------------------------------------------------
     0:00:00: Balancing the network:
              Trial  1: relative flow change = 0.672166
              Trial  2: relative flow change = 0.316258
              Trial  3: relative flow change = 0.091651
              Trial  4: relative flow change = 0.006560
              Trial  5: relative flow change = 0.000032
              Trial  6: relative flow change = 0.000000
     0:00:00: Balanced after 6 trials
     0:00:00: Reservoir R1 is emptying
     0:00:00: Tank T3 is filling at 3.98 ft
   
   
  Hydraulic Status:
  -----------------------------------------------------------------------
     0:00:00: Balancing the network:
              Trial  1: relative flow change = 0.672534
              Trial  2: relative flow change = 0.316608
              Trial  3: relative flow change = 0.091941
              Trial  4: relative flow change = 0.006606
              Trial  5: relative flow change = 0.000033
              Trial  6: relative flow change = 0.000000
     0:00:00: Balanced after 6 trials
     0:00:00: Reservoir R1 is emptying
     0:00:00: Tank T3 is filling at 4.00 ft
   
   
  Hydraulic Status:
  -----------------------------------------------------------------------
     0:00:00: Balancing the network:
              Trial  1: relative flow change = 0.670660
              Trial  2: relative flow change = 0.318358
              Trial  3: relative flow change = 0.092353
              Trial  4: relative flow change = 0.006616
              Trial  5: relative flow change = 0.000033
              Trial  6: relative flow change = 0.000000
     0:00:00: Balanced after 6 trials
     0:00:00: Reservoir R1 is emptying
     0:00:00: Tank T3 is filling at 3.98 ft
   
   
  Hydraulic Status:
  -----------------------------------------------------------------------
     0:00:00: Balancing the network:
              Trial  1: relative flow change = 0.671794
              Trial  2: relative flow change = 0.316949
              Trial  3: relative flow change = 0.091925
              Trial  4: relative flow change = 0.006587
              Trial  5: relative flow change = 0.000033
              Trial  6: relative flow change = 0.000000
     0:00:00: Balanced after 6 trials
     0:00:00: Reservoir R1 is emptying
     0:00:00: Tank T3 is filling at 4.03 ft
   
   
  Hydraulic Status:
  -----------------------------------------------------------------------
     0:00:00: Balancing the network:
              Trial  1: relative flow change = 0.672074
              Trial  2: relative flow change = 0.317029
              Trial  3: relative flow change = 0.092039
              Trial  4: relative flow change = 0.006608
              Trial  5: relative flow change = 0.000033
              Trial  6: relative flow change = 0.000000
     0:00:00: Balanced after 6 trials
     0:00:00: Reservoir R1 is emptying
     0:00:00: Tank T3 is filling at 4.00 ft
   
   
  Hydraulic Status:
  -----------------------------------------------------------------------
     0:00:00: Balancing the network:
              Trial  1: relative flow change = 0.669283
              Trial  2: relative flow change = 0.317282
              Trial  3: relative flow change = 0.091415
              Trial  4: relative flow change = 0.006465
              Trial  5: relative flow change = 0.000031
              Trial  6: relative flow change = 0.000000
     0:00:00: Balanced after 6 trials
     0:00:00: Reservoir R1 is emptying
     0:00:00: Tank T3 is filling at 4.02 ft
   
   
  Hydraulic Status:
  -----------------------------------------------------------------------
     0:00:00: Balancing the network:
              Trial  1: relative flow change = 0.672557
              Trial  2: relative flow change = 0.315234
              Trial  3: relative flow change = 0.091220
              Trial  4: relative flow change = 0.006513
              Trial  5: relative flow change = 0.000032
              Trial  6: relative flow change = 0.000000
     0:00:00: Balanced after 6 trials
     0:00:00: Reservoir R1 is emptying
     0:00:00: Tank T3 is filling at 4.01 ft
   
   
  Hydraulic Status:
  -----------------------------------------------------------------------
     0:00:00: Balancing the network:
              Trial  1: relative flow change = 0.671259
              Trial  2: relative flow change = 0.317317
              Trial  3: relative flow change = 0.091971
              Trial  4: relative flow change = 0.006581
              Trial  5: relative flow change = 0.000032
              Trial  6: relative flow change = 0.000000
     0:00:00: Balanced after 6 trials
     0:00:00: Reservoir R1 is emptying
     0:00:00: Tank T3 is filling at 4.01 ft
   
   
  Hydraulic Status:
  -----------------------------------------------------------------------
     0:00:00: Balancing the network:
              Trial  1: relative flow change = 0.671285
              Trial  2: relative flow change = 0.317665
              Trial  3: relative flow change = 0.092157
              Trial  4: relative flow change = 0.006605
              Trial  5: relative flow change = 0.000033
              Trial  6: relative flow change = 0.000000
     0:00:00: Balanced after 6 trials
     0:00:00: Reservoir R1 is emptying
     0:00:00: Tank T3 is filling at 3.98 ft
   
   
  Hydraulic Status:
  -----------------------------------------------------------------------
     0:00:00: Balancing the network:
              Trial  1: relative flow change = 0.671576
              Trial  2: relative flow change = 0.315482
              Trial  3: relative flow change = 0.091086
              Trial  4: relative flow change = 0.006474
              Trial  5: relative flow change = 0.000032
              Trial  6: relative flow change = 0.000000
     0:00:00: Balanced after 6 trials
     0:00:00: Reservoir R1 is emptying
     0:00:00: Tank T3 is filling at 4.02 ft
   
   
  Hydraulic Status:
  -----------------------------------------------------------------------
     0:00:00: Balancing the network:
              Trial  1: relative flow change = 0.671240
              Trial  2: relative flow change = 0.316183
              Trial  3: relative flow change = 0.091366
              Trial  4: relative flow change = 0.006503
              Trial  5: relative flow change = 0.000032
              Trial  6: relative flow change = 0.000000
     0:00:00: Balanced after 6 trials
     0:00:00: Reservoir R1 is emptying
     0:00:00: Tank T3 is filling at 4.02 ft
   
   
  Hydraulic Status:
  -----------------------------------------------------------------------
     0:00:00: Balancing the network:
              Trial  1: relative flow change = 0.673278
              Trial  2: relative flow change = 0.315169
              Trial  3: relative flow change = 0.091375
              Trial  4: relative flow change = 0.006549
              Trial  5: relative flow change = 0.000032
              Trial  6: relative flow change = 0.000000
     0:00:00: Balanced after 6 trials
     0:00:00: Reservoir R1 is emptying
     0:00:00: Tank T3 is filling at 3.97 ft
   
   
  Hydraulic Status:
  -----------------------------------------------------------------------
     0:00:00: Balancing the network:
              Trial  1: relative flow change = 0.672922
              Trial  2: relative flow change = 0.314835
              Trial  3: relative flow change = 0.091106
              Trial  4: relative flow change = 0.006507
              Trial  5: relative flow change = 0.000032
              Trial  6: relative flow change = 0.000000
     0:00:00: Balanced after 6 trials
     0:00:00: Reservoir R1 is emptying
     0:00:00: Tank T3 is filling at 4.00 ft
   
   
  Hydraulic Status:
  -----------------------------------------------------------------------
     0:00:00: Balancing the network:
              Trial  1: relative flow change = 0.671936
              Trial  2: relative flow change = 0.316666
              Trial  3: relative flow change = 0.091807
              Trial  4: relative flow change = 0.006575
              Trial  5: relative flow change = 0.000032
              Trial  6: relative flow change = 0.000000
     0:00:00: Balanced after 6 trials
     0:00:00: Reservoir R1 is emptying
     0:00:00: Tank T3 is filling at 3.99 ft
   
   
  Hydraulic Status:
  -----------------------------------------------------------------------
     0:00:00: Balancing the network:
              Trial  1: relative flow change = 0.670791
              Trial  2: relative flow change = 0.316876
              Trial  3: relative flow change = 0.091607
              Trial  4: relative flow change = 0.006523
              Trial  5: relative flow change = 0.000032
              Trial  6: relative flow change = 0.000000
     0:00:00: Balanced after 6 trials
     0:00:00: Reservoir R1 is emptying
     0:00:00: Tank T3 is filling at 4.00 ft
   
   
  Hydraulic Status:
  -----------------------------------------------------------------------
     0:00:00: Balancing the network:
              Trial  1: relative flow change = 0.668717
              Trial  2: relative flow change = 0.319014
              Trial  3: relative flow change = 0.092172
              Trial  4: relative flow change = 0.006549
              Trial  5: relative flow change = 0.000032
              Trial  6: relative flow change = 0.000000
     0:00:00: Balanced after 6 trials
     0:00:00: Reservoir R1 is emptying
     0:00:00: Tank T3 is filling at 3.99 ft
   
   
  Hydraulic Status:
  -----------------------------------------------------------------------
     0:00:00: Balancing the network:
              Trial  1: relative flow change = 0.672732
              Trial  2: relative flow change = 0.315736
              Trial  3: relative flow change = 0.091533
              Trial  4: relative flow change = 0.006558
              Trial  5: relative flow change = 0.000032
              Trial  6: relative flow change = 0.000000
     0:00:00: Balanced after 6 trials
     0:00:00: Reservoir R1 is emptying
     0:00:00: Tank T3 is filling at 4.00 ft
   
   
  Hydraulic Status:
  -----------------------------------------------------------------------
     0:00:00: Balancing the network:
              Trial  1: relative flow change = 0.672025
              Trial  2: relative flow change = 0.316953
              Trial  3: relative flow change = 0.091987
              Trial  4: relative flow change = 0.006600
              Trial  5: relative flow change = 0.000033
              Trial  6: relative flow change = 0.000000
     0:00:00: Balanced after 6 trials
     0:00:00: Reservoir R1 is emptying
     0:00:00: Tank T3 is filling at 4.01 ft
   
   
  Hydraulic Status:
  -----------------------------------------------------------------------
     0:00:00: Balancing the network:
              Trial  1: relative flow change = 0.672424
              Trial  2: relative flow change = 0.316753
              Trial  3: relative flow change = 0.091989
              Trial  4: relative flow change = 0.006609
              Trial  5: relative flow change = 0.000033
              Trial  6: relative flow change = 0.000000
     0:00:00: Balanced after 6 trials
     0:00:00: Reservoir R1 is emptying
     0:00:00: Tank T3 is filling at 4.00 ft
   
   
  Hydraulic Status:
  -----------------------------------------------------------------------
     0:00:00: Balancing the network:
              Trial  1: relative flow change = 0.673152
              Trial  2: relative flow change = 0.313294
              Trial  3: relative flow change = 0.090353
              Trial  4: relative flow change = 0.006416
              Trial  5: relative flow change = 0.000031
              Trial  6: relative flow change = 0.000000
     0:00:00: Balanced after 6 trials
     0:00:00: Reservoir R1 is emptying
     0:00:00: Tank T3 is filling at 4.00 ft
   
   
  Hydraulic Status:
  -----------------------------------------------------------------------
     0:00:00: Balancing the network:
              Trial  1: relative flow change = 0.671810
              Trial  2: relative flow change = 0.315279
              Trial  3: relative flow change = 0.091035
              Trial  4: relative flow change = 0.006473
              Trial  5: relative flow change = 0.000032
              Trial  6: relative flow change = 0.000000
     0:00:00: Balanced after 6 trials
     0:00:00: Reservoir R1 is emptying
     0:00:00: Tank T3 is filling at 3.98 ft
   
   
  Hydraulic Status:
  -----------------------------------------------------------------------
     0:00:00: Balancing the network:
              Trial  1: relative flow change = 0.673038
              Trial  2: relative flow change = 0.313487
              Trial  3: relative flow change = 0.090425
              Trial  4: relative flow change = 0.006422
              Trial  5: relative flow change = 0.000031
              Trial  6: relative flow change = 0.000000
     0:00:00: Balanced after 6 trials
     0:00:00: Reservoir R1 is emptying
     0:00:00: Tank T3 is filling at 4.00 ft
   
   
  Hydraulic Status:
  -----------------------------------------------------------------------
     0:00:00: Balancing the network:
              Trial  1: relative flow change = 0.671019
              Trial  2: relative flow change = 0.317393
              Trial  3: relative flow change = 0.091942
              Trial  4: relative flow change = 0.006571
              Trial  5: relative flow change = 0.000032
              Trial  6: relative flow change = 0.000000
     0:00:00: Balanced after 6 trials
     0:00:00: Reservoir R1 is emptying
     0:00:00: Tank T3 is filling at 3.99 ft
   
   
  Hydraulic Status:
  -----------------------------------------------------------------------
     0:00:00: Balancing the network:
              Trial  1: relative flow change = 0.672518
              Trial  2: relative flow change = 0.315001
              Trial  3: relative flow change = 0.091081
              Trial  4: relative flow change = 0.006494
              Trial  5: relative flow change = 0.000032
              Trial  6: relative flow change = 0.000000
     0:00:00: Balanced after 6 trials
     0:00:00: Reservoir R1 is emptying
     0:00:00: Tank T3 is filling at 3.98 ft
   
   
  Hydraulic Status:
  -----------------------------------------------------------------------
     0:00:00: Balancing the network:
              Trial  1: relative flow change = 0.672160
              Trial  2: relative flow change = 0.316894
              Trial  3: relative flow change = 0.091991
              Trial  4: relative flow change = 0.006604
              Trial  5: relative flow change = 0.000033
              Trial  6: relative flow change = 0.000000
     0:00:00: Balanced after 6 trials
     0:00:00: Reservoir R1 is emptying
     0:00:00: Tank T3 is filling at 4.00 ft
   
   
  Hydraulic Status:
  -----------------------------------------------------------------------
     0:00:00: Balancing the network:
              Trial  1: relative flow change = 0.671842
              Trial  2: relative flow change = 0.315072
              Trial  3: relative flow change = 0.090937
              Trial  4: relative flow change = 0.006461
              Trial  5: relative flow change = 0.000031
              Trial  6: relative flow change = 0.000000
     0:00:00: Balanced after 6 trials
     0:00:00: Reservoir R1 is emptying
     0:00:00: Tank T3 is filling at 4.00 ft
   
   
  Hydraulic Status:
  -----------------------------------------------------------------------
     0:00:00: Balancing the network:
              Trial  1: relative flow change = 0.670891
              Trial  2: relative flow change = 0.316014
              Trial  3: relative flow change = 0.091178
              Trial  4: relative flow change = 0.006471
              Trial  5: relative flow change = 0.000031
              Trial  6: relative flow change = 0.000000
     0:00:00: Balanced after 6 trials
     0:00:00: Reservoir R1 is emptying
     0:00:00: Tank T3 is filling at 4.00 ft
   
   
  Hydraulic Status:
  -----------------------------------------------------------------------
     0:00:00: Balancing the network:
              Trial  1: relative flow change = 0.672473
              Trial  2: relative flow change = 0.315614
              Trial  3: relative flow change = 0.091400
              Trial  4: relative flow change = 0.006535
              Trial  5: relative flow change = 0.000032
              Trial  6: relative flow change = 0.000000
     0:00:00: Balanced after 6 trials
     0:00:00: Reservoir R1 is emptying
     0:00:00: Tank T3 is filling at 4.02 ft
   
   
  Hydraulic Status:
  -----------------------------------------------------------------------
     0:00:00: Balancing the network:
              Trial  1: relative flow change = 0.671730
              Trial  2: relative flow change = 0.317339
              Trial  3: relative flow change = 0.092111
              Trial  4: relative flow change = 0.006609
              Trial  5: relative flow change = 0.000033
              Trial  6: relative flow change = 0.000000
     0:00:00: Balanced after 6 trials
     0:00:00: Reservoir R1 is emptying
     0:00:00: Tank T3 is filling at 4.01 ft
   
   
  Hydraulic Status:
  -----------------------------------------------------------------------
     0:00:00: Balancing the network:
              Trial  1: relative flow change = 0.670807
              Trial  2: relative flow change = 0.316935
              Trial  3: relative flow change = 0.091646
              Trial  4: relative flow change = 0.006529
              Trial  5: relative flow change = 0.000032
              Trial  6: relative flow change = 0.000000
     0:00:00: Balanced after 6 trials
     0:00:00: Reservoir R1 is emptying
     0:00:00: Tank T3 is filling at 4.02 ft
   
   
  Hydraulic Status:
  -----------------------------------------------------------------------
     0:00:00: Balancing the network:
              Trial  1: relative flow change = 0.669722
              Trial  2: relative flow change = 0.318040
              Trial  3: relative flow change = 0.091930
              Trial  4: relative flow change = 0.006540
              Trial  5: relative flow change = 0.000032
              Trial  6: relative flow change = 0.000000
     0:00:00: Balanced after 6 trials
     0:00:00: Reservoir R1 is emptying
     0:00:00: Tank T3 is filling at 3.99 ft
   
   
  Hydraulic Status:
  -----------------------------------------------------------------------
     0:00:00: Balancing the network:
              Trial  1: relative flow change = 0.672000
              Trial  2: relative flow change = 0.316044
              Trial  3: relative flow change = 0.091493
              Trial  4: relative flow change = 0.006536
              Trial  5: relative flow change = 0.000032
              Trial  6: relative flow change = 0.000000
     0:00:00: Balanced after 6 trials
     0:00:00: Reservoir R1 is emptying
     0:00:00: Tank T3 is filling at 3.99 ft
   
   
  Hydraulic Status:
  -----------------------------------------------------------------------
     0:00:00: Balancing the network:
              Trial  1: relative flow change = 0.673306
              Trial  2: relative flow change = 0.312993
              Trial  3: relative flow change = 0.090236
              Trial  4: relative flow change = 0.006404
              Trial  5: relative flow change = 0.000031
              Trial  6: relative flow change = 0.000000
     0:00:00: Balanced after 6 trials
     0:00:00: Reservoir R1 is emptying
     0:00:00: Tank T3 is filling at 4.00 ft
   
   
  Hydraulic Status:
  -----------------------------------------------------------------------
     0:00:00: Balancing the network:
              Trial  1: relative flow change = 0.672634
              Trial  2: relative flow change = 0.315237
              Trial  3: relative flow change = 0.091244
              Trial  4: relative flow change = 0.006519
              Trial  5: relative flow change = 0.000032
              Trial  6: relative flow change = 0.000000
     0:00:00: Balanced after 6 trials
     0:00:00: Reservoir R1 is emptying
     0:00:00: Tank T3 is filling at 4.02 ft
   
   
  Hydraulic Status:
  -----------------------------------------------------------------------
     0:00:00: Balancing the network:
              Trial  1: relative flow change = 0.670755
              Trial  2: relative flow change = 0.318313
              Trial  3: relative flow change = 0.092363
              Trial  4: relative flow change = 0.006620
              Trial  5: relative flow change = 0.000033
              Trial  6: relative flow change = 0.000000
     0:00:00: Balanced after 6 trials
     0:00:00: Reservoir R1 is emptying
     0:00:00: Tank T3 is filling at 4.02 ft
   
   
  Hydraulic Status:
  -----------------------------------------------------------------------
     0:00:00: Balancing the network:
              Trial  1: relative flow change = 0.672960
              Trial  2: relative flow change = 0.315049
              Trial  3: relative flow change = 0.091229
              Trial  4: relative flow change = 0.006524
              Trial  5: relative flow change = 0.000032
              Trial  6: relative flow change = 0.000000
     0:00:00: Balanced after 6 trials
     0:00:00: Reservoir R1 is emptying
     0:00:00: Tank T3 is filling at 4.00 ft
   
   
  Hydraulic Status:
  -----------------------------------------------------------------------
     0:00:00: Balancing the network:
              Trial  1: relative flow change = 0.670196
              Trial  2: relative flow change = 0.316795
              Trial  3: relative flow change = 0.091401
              Trial  4: relative flow change = 0.006483
              Trial  5: relative flow change = 0.000031
              Trial  6: relative flow change = 0.000000
     0:00:00: Balanced after 6 trials
     0:00:00: Reservoir R1 is emptying
     0:00:00: Tank T3 is filling at 3.99 ft
   
   
  Hydraulic Status:
  -----------------------------------------------------------------------
     0:00:00: Balancing the network:
              Trial  1: relative flow change = 0.671568
              Trial  2: relative flow change = 0.316318
              Trial  3: relative flow change = 0.091519
              Trial  4: relative flow change = 0.006529
              Trial  5: relative flow change = 0.000032
              Trial  6: relative flow change = 0.000000
     0:00:00: Balanced after 6 trials
     0:00:00: Reservoir R1 is emptying
     0:00:00: Tank T3 is filling at 3.98 ft
   
   
  Hydraulic Status:
  -----------------------------------------------------------------------
     0:00:00: Balancing the network:
              Trial  1: relative flow change = 0.670317
              Trial  2: relative flow change = 0.318035
              Trial  3: relative flow change = 0.092094
              Trial  4: relative flow change = 0.006575
              Trial  5: relative flow change = 0.000032
              Trial  6: relative flow change = 0.000000
     0:00:00: Balanced after 6 trials
     0:00:00: Reservoir R1 is emptying
     0:00:00: Tank T3 is filling at 4.01 ft
   
   
  Hydraulic Status:
  -----------------------------------------------------------------------
     0:00:00: Balancing the network:
              Trial  1: relative flow change = 0.674301
              Trial  2: relative flow change = 0.314442
              Trial  3: relative flow change = 0.091274
              Trial  4: relative flow change = 0.006560
              Trial  5: relative flow change = 0.000033
              Trial  6: relative flow change = 0.000000
     0:00:00: Balanced after 6 trials
     0:00:00: Reservoir R1 is emptying
     0:00:00: Tank T3 is filling at 4.00 ft
   
   
  Hydraulic Status:
  -----------------------------------------------------------------------
     0:00:00: Balancing the network:
              Trial  1: relative flow change = 0.672356
              Trial  2: relative flow change = 0.316414
              Trial  3: relative flow change = 0.091786
              Trial  4: relative flow change = 0.006581
              Trial  5: relative flow change = 0.000033
              Trial  6: relative flow change = 0.000000
     0:00:00: Balanced after 6 trials
     0:00:00: Reservoir R1 is emptying
     0:00:00: Tank T3 is filling at 3.98 ft
   
   
  Hydraulic Status:
  -----------------------------------------------------------------------
     0:00:00: Balancing the network:
              Trial  1: relative flow change = 0.673004
              Trial  2: relative flow change = 0.314785
              Trial  3: relative flow change = 0.091101
              Trial  4: relative flow change = 0.006508
              Trial  5: relative flow change = 0.000032
              Trial  6: relative flow change = 0.000000
     0:00:00: Balanced after 6 trials
     0:00:00: Reservoir R1 is emptying
     0:00:00: Tank T3 is filling at 3.99 ft
   
   
  Hydraulic Status:
  -----------------------------------------------------------------------
     0:00:00: Balancing the network:
              Trial  1: relative flow change = 0.669435
              Trial  2: relative flow change = 0.320550
              Trial  3: relative flow change = 0.093182
              Trial  4: relative flow change = 0.006694
              Trial  5: relative flow change = 0.000033
              Trial  6: relative flow change = 0.000000
     0:00:00: Balanced after 6 trials
     0:00:00: Reservoir R1 is emptying
     0:00:00: Tank T3 is filling at 3.97 ft
   
   
  Hydraulic Status:
  -----------------------------------------------------------------------
     0:00:00: Balancing the network:
              Trial  1: relative flow change = 0.670652
              Trial  2: relative flow change = 0.316968
              Trial  3: relative flow change = 0.091619
              Trial  4: relative flow change = 0.006522
              Trial  5: relative flow change = 0.000032
              Trial  6: relative flow change = 0.000000
     0:00:00: Balanced after 6 trials
     0:00:00: Reservoir R1 is emptying
     0:00:00: Tank T3 is filling at 4.01 ft
   
   
  Hydraulic Status:
  -----------------------------------------------------------------------
     0:00:00: Balancing the network:
              Trial  1: relative flow change = 0.670376
              Trial  2: relative flow change = 0.317963
              Trial  3: relative flow change = 0.092069
              Trial  4: relative flow change = 0.006573
              Trial  5: relative flow change = 0.000032
              Trial  6: relative flow change = 0.000000
     0:00:00: Balanced after 6 trials
     0:00:00: Reservoir R1 is emptying
     0:00:00: Tank T3 is filling at 4.00 ft
   
   
  Hydraulic Status:
  -----------------------------------------------------------------------
     0:00:00: Balancing the network:
              Trial  1: relative flow change = 0.673279
              Trial  2: relative flow change = 0.315419
              Trial  3: relative flow change = 0.091518
              Trial  4: relative flow change = 0.006569
              Trial  5: relative flow change = 0.000033
              Trial  6: relative flow change = 0.000000
     0:00:00: Balanced after 6 trials
     0:00:00: Reservoir R1 is emptying
     0:00:00: Tank T3 is filling at 4.03 ft
   
   
  Hydraulic Status:
  -----------------------------------------------------------------------
     0:00:00: Balancing the network:
              Trial  1: relative flow change = 0.672798
              Trial  2: relative flow change = 0.316259
              Trial  3: relative flow change = 0.091825
              Trial  4: relative flow change = 0.006596
              Trial  5: relative flow change = 0.000033
              Trial  6: relative flow change = 0.000000
     0:00:00: Balanced after 6 trials
     0:00:00: Reservoir R1 is emptying
     0:00:00: Tank T3 is filling at 3.98 ft
   
   
  Hydraulic Status:
  -----------------------------------------------------------------------
     0:00:00: Balancing the network:
              Trial  1: relative flow change = 0.672324
              Trial  2: relative flow change = 0.316209
              Trial  3: relative flow change = 0.091675
              Trial  4: relative flow change = 0.006567
              Trial  5: relative flow change = 0.000032
              Trial  6: relative flow change = 0.000000
     0:00:00: Balanced after 6 trials
     0:00:00: Reservoir R1 is emptying
     0:00:00: Tank T3 is filling at 4.02 ft
   
   
  Hydraulic Status:
  -----------------------------------------------------------------------
     0:00:00: Balancing the network:
              Trial  1: relative flow change = 0.670926
              Trial  2: relative flow change = 0.317896
              Trial  3: relative flow change = 0.092186
              Trial  4: relative flow change = 0.006601
              Trial  5: relative flow change = 0.000033
              Trial  6: relative flow change = 0.000000
     0:00:00: Balanced after 6 trials
     0:00:00: Reservoir R1 is emptying
     0:00:00: Tank T3 is filling at 4.00 ft
   
   
  Hydraulic Status:
  -----------------------------------------------------------------------
     0:00:00: Balancing the network:
              Trial  1: relative flow change = 0.671906
              Trial  2: relative flow change = 0.315753
              Trial  3: relative flow change = 0.091316
              Trial  4: relative flow change = 0.006511
              Trial  5: relative flow change = 0.000032
              Trial  6: relative flow change = 0.000000
     0:00:00: Balanced after 6 trials
     0:00:00: Reservoir R1 is emptying
     0:00:00: Tank T3 is filling at 4.00 ft
   
   
  Hydraulic Status:
  -----------------------------------------------------------------------
     0:00:00: Balancing the network:
              Trial  1: relative flow change = 0.671383
              Trial  2: relative flow change = 0.317461
              Trial  3: relative flow change = 0.092081
              Trial  4: relative flow change = 0.006598
              Trial  5: relative flow change = 0.000033
              Trial  6: relative flow change = 0.000000
     0:00:00: Balanced after 6 trials
     0:00:00: Reservoir R1 is emptying
     0:00:00: Tank T3 is filling at 4.01 ft
   
   
  Hydraulic Status:
  -----------------------------------------------------------------------
     0:00:00: Balancing the network:
              Trial  1: relative flow change = 0.673510
              Trial  2: relative flow change = 0.313403
              Trial  3: relative flow change = 0.090511
              Trial  4: relative flow change = 0.006444
              Trial  5: relative flow change = 0.000031
              Trial  6: relative flow change = 0.000000
     0:00:00: Balanced after 6 trials
     0:00:00: Reservoir R1 is emptying
     0:00:00: Tank T3 is filling at 4.02 ft
   
   
  Hydraulic Status:
  -----------------------------------------------------------------------
     0:00:00: Balancing the network:
              Trial  1: relative flow change = 0.672399
              Trial  2: relative flow change = 0.316100
              Trial  3: relative flow change = 0.091632
              Trial  4: relative flow change = 0.006563
              Trial  5: relative flow change = 0.000032
              Trial  6: relative flow change = 0.000000
     0:00:00: Balanced after 6 trials
     0:00:00: Reservoir R1 is emptying
     0:00:00: Tank T3 is filling at 3.98 ft
   
   
  Hydraulic Status:
  -----------------------------------------------------------------------
     0:00:00: Balancing the network:
              Trial  1: relative flow change = 0.672708
              Trial  2: relative flow change = 0.315352
              Trial  3: relative flow change = 0.091325
              Trial  4: relative flow change = 0.006531
              Trial  5: relative flow change = 0.000032
              Trial  6: relative flow change = 0.000000
     0:00:00: Balanced after 6 trials
     0:00:00: Reservoir R1 is emptying
     0:00:00: Tank T3 is filling at 4.02 ft
   
   
  Hydraulic Status:
  -----------------------------------------------------------------------
     0:00:00: Balancing the network:
              Trial  1: relative flow change = 0.673763
[...]
     0:00:00: Balancing the network:
              Trial  1: relative flow change = 0.672468
              Trial  2: relative flow change = 0.315381
              Trial  3: relative flow change = 0.091267
              Trial  4: relative flow change = 0.006517
              Trial  5: relative flow change = 0.000032
              Trial  6: relative flow change = 0.000000
     0:00:00: Balanced after 6 trials
     0:00:00: Reservoir R1 is emptying
     0:00:00: Tank T3 is filling at 3.98 ft
   
   
  Hydraulic Status:
  -----------------------------------------------------------------------
     0:00:00: Balancing the network:
              Trial  1: relative flow change = 0.670909
              Trial  2: relative flow change = 0.317262
              Trial  3: relative flow change = 0.091849
              Trial  4: relative flow change = 0.006557
              Trial  5: relative flow change = 0.000032
              Trial  6: relative flow change = 0.000000
     0:00:00: Balanced after 6 trials
     0:00:00: Reservoir R1 is emptying
     0:00:00: Tank T3 is filling at 4.03 ft
   
   
  Hydraulic Status:
  -----------------------------------------------------------------------
     0:00:00: Balancing the network:
              Trial  1: relative flow change = 0.672331
              Trial  2: relative flow change = 0.315246
              Trial  3: relative flow change = 0.091164
              Trial  4: relative flow change = 0.006501
              Trial  5: relative flow change = 0.000032
              Trial  6: relative flow change = 0.000000
     0:00:00: Balanced after 6 trials
     0:00:00: Reservoir R1 is emptying
     0:00:00: Tank T3 is filling at 4.00 ft
   
   
  Hydraulic Status:
  -----------------------------------------------------------------------
     0:00:00: Balancing the network:
              Trial  1: relative flow change = 0.672677
              Trial  2: relative flow change = 0.316147
              Trial  3: relative flow change = 0.091732
              Trial  4: relative flow change = 0.006582
              Trial  5: relative flow change = 0.000033
              Trial  6: relative flow change = 0.000000
     0:00:00: Balanced after 6 trials
     0:00:00: Reservoir R1 is emptying
     0:00:00: Tank T3 is filling at 3.98 ft
   
   
  Hydraulic Status:
  -----------------------------------------------------------------------
     0:00:00: Balancing the network:
              Trial  1: relative flow change = 0.671156
              Trial  2: relative flow change = 0.317642
              Trial  3: relative flow change = 0.092113
              Trial  4: relative flow change = 0.006596
              Trial  5: relative flow change = 0.000033
              Trial  6: relative flow change = 0.000000
     0:00:00: Balanced after 6 trials
     0:00:00: Reservoir R1 is emptying
     0:00:00: Tank T3 is filling at 4.00 ft
   
   
  Hydraulic Status:
  -----------------------------------------------------------------------
     0:00:00: Balancing the network:
              Trial  1: relative flow change = 0.672017
              Trial  2: relative flow change = 0.317518
              Trial  3: relative flow change = 0.092280
              Trial  4: relative flow change = 0.006637
              Trial  5: relative flow change = 0.000033
              Trial  6: relative flow change = 0.000000
     0:00:00: Balanced after 6 trials
     0:00:00: Reservoir R1 is emptying
     0:00:00: Tank T3 is filling at 3.98 ft
   
   
  Hydraulic Status:
  -----------------------------------------------------------------------
     0:00:00: Balancing the network:
              Trial  1: relative flow change = 0.670858
              Trial  2: relative flow change = 0.317354
              Trial  3: relative flow change = 0.091880
              Trial  4: relative flow change = 0.006560
              Trial  5: relative flow change = 0.000032
              Trial  6: relative flow change = 0.000000
     0:00:00: Balanced after 6 trials
     0:00:00: Reservoir R1 is emptying
     0:00:00: Tank T3 is filling at 4.01 ft
   
   
  Hydraulic Status:
  -----------------------------------------------------------------------
     0:00:00: Balancing the network:
              Trial  1: relative flow change = 0.671694
              Trial  2: relative flow change = 0.317335
              Trial  3: relative flow change = 0.092097
              Trial  4: relative flow change = 0.006607
              Trial  5: relative flow change = 0.000033
              Trial  6: relative flow change = 0.000000
     0:00:00: Balanced after 6 trials
     0:00:00: Reservoir R1 is emptying
     0:00:00: Tank T3 is filling at 4.00 ft
   
   
  Hydraulic Status:
  -----------------------------------------------------------------------
     0:00:00: Balancing the network:
              Trial  1: relative flow change = 0.671429
              Trial  2: relative flow change = 0.314964
              Trial  3: relative flow change = 0.090769
              Trial  4: relative flow change = 0.006430
              Trial  5: relative flow change = 0.000031
              Trial  6: relative flow change = 0.000000
     0:00:00: Balanced after 6 trials
     0:00:00: Reservoir R1 is emptying
     0:00:00: Tank T3 is filling at 4.00 ft
   
   
  Hydraulic Status:
  -----------------------------------------------------------------------
     0:00:00: Balancing the network:
              Trial  1: relative flow change = 0.672543
              Trial  2: relative flow change = 0.315887
              Trial  3: relative flow change = 0.091562
              Trial  4: relative flow change = 0.006557
              Trial  5: relative flow change = 0.000032
              Trial  6: relative flow change = 0.000000
     0:00:00: Balanced after 6 trials
     0:00:00: Reservoir R1 is emptying
     0:00:00: Tank T3 is filling at 4.01 ft
   
   
  Hydraulic Status:
  -----------------------------------------------------------------------
     0:00:00: Balancing the network:
              Trial  1: relative flow change = 0.671168
              Trial  2: relative flow change = 0.317452
              Trial  3: relative flow change = 0.092018
              Trial  4: relative flow change = 0.006585
              Trial  5: relative flow change = 0.000032
              Trial  6: relative flow change = 0.000000
     0:00:00: Balanced after 6 trials
     0:00:00: Reservoir R1 is emptying
     0:00:00: Tank T3 is filling at 4.01 ft
   
   
  Hydraulic Status:
  -----------------------------------------------------------------------
     0:00:00: Balancing the network:
              Trial  1: relative flow change = 0.672384
              Trial  2: relative flow change = 0.315356
              Trial  3: relative flow change = 0.091233
              Trial  4: relative flow change = 0.006511
              Trial  5: relative flow change = 0.000032
              Trial  6: relative flow change = 0.000000
     0:00:00: Balanced after 6 trials
     0:00:00: Reservoir R1 is emptying
     0:00:00: Tank T3 is filling at 3.99 ft
   
   
  Hydraulic Status:
  -----------------------------------------------------------------------
     0:00:00: Balancing the network:
              Trial  1: relative flow change = 0.670940
              Trial  2: relative flow change = 0.318115
              Trial  3: relative flow change = 0.092301
              Trial  4: relative flow change = 0.006615
              Trial  5: relative flow change = 0.000033
              Trial  6: relative flow change = 0.000000
     0:00:00: Balanced after 6 trials
     0:00:00: Reservoir R1 is emptying
     0:00:00: Tank T3 is filling at 3.98 ft
   
   
  Hydraulic Status:
  -----------------------------------------------------------------------
     0:00:00: Balancing the network:
              Trial  1: relative flow change = 0.671355
              Trial  2: relative flow change = 0.317637
              Trial  3: relative flow change = 0.092165
              Trial  4: relative flow change = 0.006608
              Trial  5: relative flow change = 0.000033
              Trial  6: relative flow change = 0.000000
     0:00:00: Balanced after 6 trials
     0:00:00: Reservoir R1 is emptying
     0:00:00: Tank T3 is filling at 4.00 ft
   
   
  Hydraulic Status:
  -----------------------------------------------------------------------
     0:00:00: Balancing the network:
              Trial  1: relative flow change = 0.671911
              Trial  2: relative flow change = 0.317062
              Trial  3: relative flow change = 0.092009
              Trial  4: relative flow change = 0.006600
              Trial  5: relative flow change = 0.000033
              Trial  6: relative flow change = 0.000000
     0:00:00: Balanced after 6 trials
     0:00:00: Reservoir R1 is emptying
     0:00:00: Tank T3 is filling at 3.99 ft
   
   
  Hydraulic Status:
  -----------------------------------------------------------------------
     0:00:00: Balancing the network:
              Trial  1: relative flow change = 0.671969
              Trial  2: relative flow change = 0.316467
              Trial  3: relative flow change = 0.091713
              Trial  4: relative flow change = 0.006563
              Trial  5: relative flow change = 0.000032
              Trial  6: relative flow change = 0.000000
     0:00:00: Balanced after 6 trials
     0:00:00: Reservoir R1 is emptying
     0:00:00: Tank T3 is filling at 4.01 ft
   
   
  Hydraulic Status:
  -----------------------------------------------------------------------
     0:00:00: Balancing the network:
              Trial  1: relative flow change = 0.671724
              Trial  2: relative flow change = 0.317042
              Trial  3: relative flow change = 0.091944
              Trial  4: relative flow change = 0.006587
              Trial  5: relative flow change = 0.000033
              Trial  6: relative flow change = 0.000000
     0:00:00: Balanced after 6 trials
     0:00:00: Reservoir R1 is emptying
     0:00:00: Tank T3 is filling at 3.97 ft
   
   
  Hydraulic Status:
  -----------------------------------------------------------------------
     0:00:00: Balancing the network:
              Trial  1: relative flow change = 0.668113
              Trial  2: relative flow change = 0.320599
              Trial  3: relative flow change = 0.092851
              Trial  4: relative flow change = 0.006622
              Trial  5: relative flow change = 0.000032
              Trial  6: relative flow change = 0.000000
     0:00:00: Balanced after 6 trials
     0:00:00: Reservoir R1 is emptying
     0:00:00: Tank T3 is filling at 4.01 ft
   
   
  Hydraulic Status:
  -----------------------------------------------------------------------
     0:00:00: Balancing the network:
              Trial  1: relative flow change = 0.671551
              Trial  2: relative flow change = 0.315756
              Trial  3: relative flow change = 0.091222
              Trial  4: relative flow change = 0.006491
              Trial  5: relative flow change = 0.000032
              Trial  6: relative flow change = 0.000000
     0:00:00: Balanced after 6 trials
     0:00:00: Reservoir R1 is emptying
     0:00:00: Tank T3 is filling at 4.00 ft
   
   
  Hydraulic Status:
  -----------------------------------------------------------------------
     0:00:00: Balancing the network:
              Trial  1: relative flow change = 0.673285
              Trial  2: relative flow change = 0.314288
              Trial  3: relative flow change = 0.090912
              Trial  4: relative flow change = 0.006490
              Trial  5: relative flow change = 0.000032
              Trial  6: relative flow change = 0.000000
     0:00:00: Balanced after 6 trials
     0:00:00: Reservoir R1 is emptying
     0:00:00: Tank T3 is filling at 3.98 ft
   
   
  Hydraulic Status:
  -----------------------------------------------------------------------
     0:00:00: Balancing the network:
              Trial  1: relative flow change = 0.670034
              Trial  2: relative flow change = 0.318852
              Trial  3: relative flow change = 0.092447
              Trial  4: relative flow change = 0.006614
              Trial  5: relative flow change = 0.000033
              Trial  6: relative flow change = 0.000000
     0:00:00: Balanced after 6 trials
     0:00:00: Reservoir R1 is emptying
     0:00:00: Tank T3 is filling at 4.00 ft
   
   
  Hydraulic Status:
  -----------------------------------------------------------------------
     0:00:00: Balancing the network:
              Trial  1: relative flow change = 0.671534
              Trial  2: relative flow change = 0.317408
              Trial  3: relative flow change = 0.092095
              Trial  4: relative flow change = 0.006603
              Trial  5: relative flow change = 0.000033
              Trial  6: relative flow change = 0.000000
     0:00:00: Balanced after 6 trials
     0:00:00: Reservoir R1 is emptying
     0:00:00: Tank T3 is filling at 4.01 ft
   
   
  Hydraulic Status:
  -----------------------------------------------------------------------
     0:00:00: Balancing the network:
              Trial  1: relative flow change = 0.672139
              Trial  2: relative flow change = 0.315153
              Trial  3: relative flow change = 0.091068
              Trial  4: relative flow change = 0.006485
              Trial  5: relative flow change = 0.000032
              Trial  6: relative flow change = 0.000000
     0:00:00: Balanced after 6 trials
     0:00:00: Reservoir R1 is emptying
     0:00:00: Tank T3 is filling at 4.04 ft
   
   
  Hydraulic Status:
  -----------------------------------------------------------------------
     0:00:00: Balancing the network:
              Trial  1: relative flow change = 0.669109
              Trial  2: relative flow change = 0.319513
              Trial  3: relative flow change = 0.092544
              Trial  4: relative flow change = 0.006605
              Trial  5: relative flow change = 0.000032
              Trial  6: relative flow change = 0.000000
     0:00:00: Balanced after 6 trials
     0:00:00: Reservoir R1 is emptying
     0:00:00: Tank T3 is filling at 3.99 ft
   
   
  Hydraulic Status:
  -----------------------------------------------------------------------
     0:00:00: Balancing the network:
              Trial  1: relative flow change = 0.672136
              Trial  2: relative flow change = 0.317915
              Trial  3: relative flow change = 0.092532
              Trial  4: relative flow change = 0.006673
              Trial  5: relative flow change = 0.000033
              Trial  6: relative flow change = 0.000000
     0:00:00: Balanced after 6 trials
     0:00:00: Reservoir R1 is emptying
     0:00:00: Tank T3 is filling at 4.02 ft
   
   
  Hydraulic Status:
  -----------------------------------------------------------------------
     0:00:00: Balancing the network:
              Trial  1: relative flow change = 0.671356
              Trial  2: relative flow change = 0.316487
              Trial  3: relative flow change = 0.091552
              Trial  4: relative flow change = 0.006529
              Trial  5: relative flow change = 0.000032
              Trial  6: relative flow change = 0.000000
     0:00:00: Balanced after 6 trials
     0:00:00: Reservoir R1 is emptying
     0:00:00: Tank T3 is filling at 3.99 ft
   
   
  Hydraulic Status:
  -----------------------------------------------------------------------
     0:00:00: Balancing the network:
              Trial  1: relative flow change = 0.673182
              Trial  2: relative flow change = 0.315958
              Trial  3: relative flow change = 0.091774
              Trial  4: relative flow change = 0.006599
              Trial  5: relative flow change = 0.000033
              Trial  6: relative flow change = 0.000000
     0:00:00: Balanced after 6 trials
     0:00:00: Reservoir R1 is emptying
     0:00:00: Tank T3 is filling at 4.00 ft
   
   
  Hydraulic Status:
  -----------------------------------------------------------------------
     0:00:00: Balancing the network:
              Trial  1: relative flow change = 0.673191
              Trial  2: relative flow change = 0.315310
              Trial  3: relative flow change = 0.091431
              Trial  4: relative flow change = 0.006555
              Trial  5: relative flow change = 0.000032
              Trial  6: relative flow change = 0.000000
     0:00:00: Balanced after 6 trials
     0:00:00: Reservoir R1 is emptying
     0:00:00: Tank T3 is filling at 4.00 ft
   
   
  Hydraulic Status:
  -----------------------------------------------------------------------
     0:00:00: Balancing the network:
              Trial  1: relative flow change = 0.673355
              Trial  2: relative flow change = 0.313881
              Trial  3: relative flow change = 0.090719
              Trial  4: relative flow change = 0.006467
              Trial  5: relative flow change = 0.000032
              Trial  6: relative flow change = 0.000000
     0:00:00: Balanced after 6 trials
     0:00:00: Reservoir R1 is emptying
     0:00:00: Tank T3 is filling at 4.01 ft
   
   
  Hydraulic Status:
  -----------------------------------------------------------------------
     0:00:00: Balancing the network:
              Trial  1: relative flow change = 0.672229
              Trial  2: relative flow change = 0.315761
              Trial  3: relative flow change = 0.091407
              Trial  4: relative flow change = 0.006530
              Trial  5: relative flow change = 0.000032
              Trial  6: relative flow change = 0.000000
     0:00:00: Balanced after 6 trials
     0:00:00: Reservoir R1 is emptying
     0:00:00: Tank T3 is filling at 3.99 ft
   
   
  Hydraulic Status:
  -----------------------------------------------------------------------
     0:00:00: Balancing the network:
              Trial  1: relative flow change = 0.672823
              Trial  2: relative flow change = 0.314947
              Trial  3: relative flow change = 0.091135
              Trial  4: relative flow change = 0.006508
              Trial  5: relative flow change = 0.000032
              Trial  6: relative flow change = 0.000000
     0:00:00: Balanced after 6 trials
     0:00:00: Reservoir R1 is emptying
     0:00:00: Tank T3 is filling at 3.98 ft
   
   
  Hydraulic Status:
  -----------------------------------------------------------------------
     0:00:00: Balancing the network:
              Trial  1: relative flow change = 0.671372
              Trial  2: relative flow change = 0.317323
              Trial  3: relative flow change = 0.092002
              Trial  4: relative flow change = 0.006587
              Trial  5: relative flow change = 0.000033
              Trial  6: relative flow change = 0.000000
     0:00:00: Balanced after 6 trials
     0:00:00: Reservoir R1 is emptying
     0:00:00: Tank T3 is filling at 4.00 ft
   
   
  Hydraulic Status:
  -----------------------------------------------------------------------
     0:00:00: Balancing the network:
              Trial  1: relative flow change = 0.672572
              Trial  2: relative flow change = 0.316368
              Trial  3: relative flow change = 0.091825
              Trial  4: relative flow change = 0.006592
              Trial  5: relative flow change = 0.000033
              Trial  6: relative flow change = 0.000000
     0:00:00: Balanced after 6 trials
     0:00:00: Reservoir R1 is emptying
     0:00:00: Tank T3 is filling at 4.01 ft
   
   
  Hydraulic Status:
  -----------------------------------------------------------------------
     0:00:00: Balancing the network:
              Trial  1: relative flow change = 0.669513
              Trial  2: relative flow change = 0.317950
              Trial  3: relative flow change = 0.091826
              Trial  4: relative flow change = 0.006522
           