  Page 1                                    Thu Aug 22 12:55:34 2019

  ******************************************************************
  *                           E P A N E T                          *
  *                   Hydraulic and Water Quality                  *
  *                   Analysis for Pipe Networks                   *
  *                         Version 2.1                            *
  ******************************************************************
  
  Analysis begun Thu Aug 22 12:55:34 2019

   
  Hydraulic Status:
  -----------------------------------------------------------------------
     0:00:00: Balancing the network:
              Trial  1: relative flow change = 0.955769
              Trial  2: relative flow change = 0.407017
              Trial  3: relative flow change = 0.043228
              Trial  4: relative flow change = 0.000978
              Trial  5: relative flow change = 0.000001
     0:00:00: Balanced after 5 trials
     0:00:00: Reservoir 1 is emptying
     0:00:00: Tank 8 is filling at 1.22 m
   
     1:00:00: Balancing the network:
              Trial  1: relative flow change = 0.000201
              Trial  2: relative flow change = 0.000000
     1:00:00: Balanced after 2 trials
   
     2:00:00: Balancing the network:
              Trial  1: relative flow change = 0.000201
              Trial  2: relative flow change = 0.000000
     2:00:00: Balanced after 2 trials
   
     3:00:00: Balancing the network:
              Trial  1: relative flow change = 0.000201
              Trial  2: relative flow change = 0.000000
     3:00:00: Balanced after 2 trials
   
     4:00:00: Balancing the network:
              Trial  1: relative flow change = 0.000201
              Trial  2: relative flow change = 0.000000
     4:00:00: Balanced after 2 trials
   
     5:00:00: Balancing the network:
              Trial  1: relative flow change = 0.000201
              Trial  2: relative flow change = 0.000000
     5:00:00: Balanced after 2 trials
   
     6:00:00: Balancing the network:
              Trial  1: relative flow change = 0.320698
              Trial  2: relative flow change = 0.097687
              Trial  3: relative flow change = 0.001752
              Trial  4: relative flow change = 0.000002
     6:00:00: Balanced after 4 trials
   
     7:00:00: Balancing the network:
              Trial  1: relative flow change = 0.000109
              Trial  2: relative flow change = 0.000000
     7:00:00: Balanced after 2 trials
   
     8:00:00: Balancing the network:
              Trial  1: relative flow change = 0.000109
              Trial  2: relative flow change = 0.000000
     8:00:00: Balanced after 2 trials
   
     9:00:00: Balancing the network:
              Trial  1: relative flow change = 0.000109
              Trial  2: relative flow change = 0.000000
     9:00:00: Balanced after 2 trials
   
    10:00:00: Balancing the network:
              Trial  1: relative flow change = 0.000109
              Trial  2: relative flow change = 0.000000
    10:00:00: Balanced after 2 trials
   
    11:00:00: Balancing the network:
              Trial  1: relative flow change = 0.000109
              Trial  2: relative flow change = 0.000000
    11:00:00: Balanced after 2 trials
   
    12:00:00: Balancing the network:
              Trial  1: relative flow change = 0.113844
              Trial  2: relative flow change = 0.029935
              Trial  3: relative flow change = 0.000137
              Trial  4: relative flow change = 0.000000
    12:00:00: Balanced after 4 trials
   
    13:00:00: Balancing the network:
              Trial  1: relative flow change = 0.000135
              Trial  2: relative flow change = 0.000000
    13:00:00: Balanced after 2 trials
   
    14:00:00: Balancing the network:
              Trial  1: relative flow change = 0.000135
              Trial  2: relative flow change = 0.000000
    14:00:00: Balanced after 2 trials
   
    15:00:00: Balancing the network:
              Trial  1: relative flow change = 0.000135
              Trial  2: relative flow change = 0.000000
    15:00:00: Balanced after 2 trials
   
    16:00:00: Balancing the network:
              Trial  1: relative flow change = 0.000135
              Trial  2: relative flow change = 0.000000
    16:00:00: Balanced after 2 trials
   
    17:00:00: Balancing the network:
              Trial  1: relative flow change = 0.000135
              Trial  2: relative flow change = 0.000000
    17:00:00: Balanced after 2 trials
   
    18:00:00: Balancing the network:
              Trial  1: relative flow change = 0.075371
              Trial  2: relative flow change = 0.017993
              Trial  3: relative flow change = 0.000067
              Trial  4: relative flow change = 0.000000
    18:00:00: Balanced after 4 trials
   
    19:00:00: Balancing the network:
              Trial  1: relative flow change = 0.000117
              Trial  2: relative flow change = 0.000000
    19:00:00: Balanced after 2 trials
   
    20:00:00: Balancing the network:
              Trial  1: relative flow change = 0.000117
              Trial  2: relative flow change = 0.000000
    20:00:00: Balanced after 2 trials
   
    21:00:00: Balancing the network:
              Trial  1: relative flow change = 0.000117
              Trial  2: relative flow change = 0.000000
    21:00:00: Balanced after 2 trials
   
    22:00:00: Balancing the network:
              Trial  1: relative flow change = 0.000117
              Trial  2: relative flow change = 0.000000
    22:00:00: Balanced after 2 trials
   
    23:00:00: Balancing the network:
              Trial  1: relative flow change = 0.000117
              Trial  2: relative flow change = 0.000000
    23:00:00: Balanced after 2 trials
   
    24:00:00: Balancing the network:
              Trial  1: relative flow change = 0.316918
              Trial  2: relative flow change = 0.098929
              Trial  3: relative flow change = 0.001094
              Trial  4: relative flow change = 0.000001
    24:00:00: Balanced after 4 trials
   
    25:00:00: Balancing the network:
              Trial  1: relative flow change = 0.000201
              Trial  2: relative flow change = 0.000000
    25:00:00: Balanced after 2 trials
   
    26:00:00: Balancing the network:
              Trial  1: relative flow change = 0.000201
              Trial  2: relative flow change = 0.000000
    26:00:00: Balanced after 2 trials
   
    27:00:00: Balancing the network:
              Trial  1: relative flow change = 0.000201
              Trial  2: relative flow change = 0.000000
    27:00:00: Balanced after 2 trials
   
    28:00:00: Balancing the network:
              Trial  1: relative flow change = 0.000201
              Trial  2: relative flow change = 0.000000
    28:00:00: Balanced after 2 trials
   
    29:00:00: Balancing the network:
              Trial  1: relative flow change = 0.000201
              Trial  2: relative flow change = 0.000000
    29:00:00: Balanced after 2 trials
   
    30:00:00: Balancing the network:
              Trial  1: relative flow change = 0.321412
              Trial  2: relative flow change = 0.097660
              Trial  3: relative flow change = 0.001764
              Trial  4: relative flow change = 0.000002
    30:00:00: Balanced after 4 trials
   
    31:00:00: Balancing the network:
              Trial  1: relative flow change = 0.000109
              Trial  2: relative flow change = 0.000000
    31:00:00: Balanced after 2 trials
   
    32:00:00: Balancing the network:
              Trial  1: relative flow change = 0.000109
              Trial  2: relative flow change = 0.000000
    32:00:00: Balanced after 2 trials
   
    33:00:00: Balancing the network:
              Trial  1: relative flow change = 0.000109
              Trial  2: relative flow change = 0.000000
    33:00:00: Balanced after 2 trials
   
    34:00:00: Balancing the network:
              Trial  1: relative flow change = 0.000109
              Trial  2: relative flow change = 0.000000
    34:00:00: Balanced after 2 trials
   
    35:00:00: Balancing the network:
              Trial  1: relative flow change = 0.000109
              Trial  2: relative flow change = 0.000000
    35:00:00: Balanced after 2 trials
   
    36:00:00: Balancing the network:
              Trial  1: relative flow change = 0.114109
              Trial  2: relative flow change = 0.030019
              Trial  3: relative flow change = 0.000138
              Trial  4: relative flow change = 0.000000
    36:00:00: Balanced after 4 trials
   
    37:00:00: Balancing the network:
              Trial  1: relative flow change = 0.000135
              Trial  2: relative flow change = 0.000000
    37:00:00: Balanced after 2 trials
   
    38:00:00: Balancing the network:
              Trial  1: relative flow change = 0.000135
              Trial  2: relative flow change = 0.000000
    38:00:00: Balanced after 2 trials
   
    39:00:00: Balancing the network:
              Trial  1: relative flow change = 0.000135
              Trial  2: relative flow change = 0.000000
    39:00:00: Balanced after 2 trials
   
    40:00:00: Balancing the network:
              Trial  1: relative flow change = 0.000135
              Trial  2: relative flow change = 0.000000
    40:00:00: Balanced after 2 trials
   
    41:00:00: Balancing the network:
              Trial  1: relative flow change = 0.000135
              Trial  2: relative flow change = 0.000000
    41:00:00: Balanced after 2 trials
   
    42:00:00: Balancing the network:
              Trial  1: relative flow change = 0.075552
              Trial  2: relative flow change = 0.018046
              Trial  3: relative flow change = 0.000068
              Trial  4: relative flow change = 0.000000
    42:00:00: Balanced after 4 trials
   
    43:00:00: Balancing the network:
              Trial  1: relative flow change = 0.000117
              Trial  2: relative flow change = 0.000000
    43:00:00: Balanced after 2 trials
   
    44:00:00: Balancing the network:
              Trial  1: relative flow change = 0.000117
              Trial  2: relative flow change = 0.000000
    44:00:00: Balanced after 2 trials
   
    45:00:00: Balancing the network:
              Trial  1: relative flow change = 0.000117
              Trial  2: relative flow change = 0.000000
    45:00:00: Balanced after 2 trials
   
    46:00:00: Balancing the network:
              Trial  1: relative flow change = 0.000117
              Trial  2: relative flow change = 0.000000
    46:00:00: Balanced after 2 trials
   
    47:00:00: Balancing the network:
              Trial  1: relative flow change = 0.000117
              Trial  2: relative flow change = 0.000000
    47:00:00: Balanced after 2 trials
   
    48:00:00: Balancing the network:
              Trial  1: relative flow change = 0.317784
              Trial  2: relative flow change = 0.099197
              Trial  3: relative flow change = 0.001103
              Trial  4: relative flow change = 0.000001
    48:00:00: Balanced after 4 trials
   
    49:00:00: Balancing the network:
              Trial  1: relative flow change = 0.000201
              Trial  2: relative flow change = 0.000000
    49:00:00: Balanced after 2 trials
   
    50:00:00: Balancing the network:
              Trial  1: relative flow change = 0.000201
              Trial  2: relative flow change = 0.000000
    50:00:00: Balanced after 2 trials
   
    51:00:00: Balancing the network:
              Trial  1: relative flow change = 0.000202
              Trial  2: relative flow change = 0.000000
    51:00:00: Balanced after 2 trials
   
    52:00:00: Balancing the network:
              Trial  1: relative flow change = 0.000202
              Trial  2: relative flow change = 0.000000
    52:00:00: Balanced after 2 trials
   
    53:00:00: Balancing the network:
              Trial  1: relative flow change = 0.000202
              Trial  2: relative flow change = 0.000000
    53:00:00: Balanced after 2 trials
   
    54:00:00: Balancing the network:
              Trial  1: relative flow change = 0.322129
              Trial  2: relative flow change = 0.097638
              Trial  3: relative flow change = 0.0017