  Page 1                                    Thu Oct 31 14:30:44 2019

  ******************************************************************
  *                           E P A N E T                          *
  *                   Hydraulic and Water Quality                  *
  *                   Analysis for Pipe Networks                   *
  *                         Version 2.1                            *
  ******************************************************************
  
  Analysis begun Thu Oct 31 14:30:44 2019

   
  Hydraulic Status:
  -----------------------------------------------------------------------
     0:00:00: Balancing the network:
              Trial  1: relative flow change = 0.714420
              Trial  2: relative flow change = 0.360512
              Trial  3: relative flow change = 0.101718
              Trial  4: relative flow change = 0.007099
              Trial  5: relative flow change = 0.000035
              Trial  6: relative flow change = 0.000000
     0:00:00: Balanced after 6 trials
     0:00:00: Reservoir R1 is emptying
     0:00:00: Tank T8 is filling at 4.00 ft
   
   
  Hydraulic Status:
  -----------------------------------------------------------------------
     0:00:00: Balancing the network:
              Trial  1: relative flow change = 0.714020
              Trial  2: relative flow change = 0.364128
              Trial  3: relative flow change = 0.104392
              Trial  4: relative flow change = 0.007606
              Trial  5: relative flow change = 0.000040
              Trial  6: relative flow change = 0.000000
     0:00:00: Balanced after 6 trials
     0:00:00: Reservoir R1 is emptying
     0:00:00: Tank T8 is filling at 4.01 ft
   
   
  Hydraulic Status:
  -----------------------------------------------------------------------
     0:00:00: Balancing the network:
              Trial  1: relative flow change = 0.706463
              Trial  2: relative flow change = 0.353826
              Trial  3: relative flow change = 0.097314
              Trial  4: relative flow change = 0.006609
              Trial  5: relative flow change = 0.000030
              Trial  6: relative flow change = 0.000000
     0:00:00: Balanced after 6 trials
     0:00:00: Reservoir R1 is emptying
     0:00:00: Tank T8 is filling at 3.99 ft
   
   
  Hydraulic Status:
  -----------------------------------------------------------------------
     0:00:00: Balancing the network:
              Trial  1: relative flow change = 0.713635
              Trial  2: relative flow change = 0.359205
              Trial  3: relative flow change = 0.100635
              Trial  4: relative flow change = 0.006911
              Trial  5: relative flow change = 0.000033
              Trial  6: relative flow change = 0.000000
     0:00:00: Balanced after 6 trials
     0:00:00: Reservoir R1 is emptying
     0:00:00: Tank T8 is filling at 3.99 ft
   
   
  Hydraulic Status:
  -----------------------------------------------------------------------
     0:00:00: Balancing the network:
              Trial  1: relative flow change = 0.717389
              Trial  2: relative flow change = 0.361544
              Trial  3: relative flow change = 0.103269
              Trial  4: relative flow change = 0.007325
              Trial  5: relative flow change = 0.000037
              Trial  6: relative flow change = 0.000000
     0:00:00: Balanced after 6 trials
     0:00:00: Reservoir R1 is emptying
     0:00:00: Tank T8 is filling at 4.01 ft
   
   
  Hydraulic Status:
  -----------------------------------------------------------------------
     0:00:00: Balancing the network:
              Trial  1: relative flow change = 0.712823
              Trial  2: relative flow change = 0.358698
              Trial  3: relative flow change = 0.100559
              Trial  4: relative flow change = 0.007027
              Trial  5: relative flow change = 0.000035
              Trial  6: relative flow change = 0.000000
     0:00:00: Balanced after 6 trials
     0:00:00: Reservoir R1 is emptying
     0:00:00: Tank T8 is filling at 4.02 ft
   
   
  Hydraulic Status:
  -----------------------------------------------------------------------
     0:00:00: Balancing the network:
              Trial  1: relative flow change = 0.713579
              Trial  2: relative flow change = 0.363885
              Trial  3: relative flow change = 0.103238
              Trial  4: relative flow change = 0.007420
              Trial  5: relative flow change = 0.000038
              Trial  6: relative flow change = 0.000000
     0:00:00: Balanced after 6 trials
     0:00:00: Reservoir R1 is emptying
     0:00:00: Tank T8 is filling at 3.97 ft
   
   
  Hydraulic Status:
  -----------------------------------------------------------------------
     0:00:00: Balancing the network:
              Trial  1: relative flow change = 0.707856
              Trial  2: relative flow change = 0.356688
              Trial  3: relative flow change = 0.098142
              Trial  4: relative flow change = 0.006695
              Trial  5: relative flow change = 0.000031
              Trial  6: relative flow change = 0.000000
     0:00:00: Balanced after 6 trials
     0:00:00: Reservoir R1 is emptying
     0:00:00: Tank T8 is filling at 4.01 ft
   
   
  Hydraulic Status:
  -----------------------------------------------------------------------
     0:00:00: Balancing the network:
              Trial  1: relative flow change = 0.707848
              Trial  2: relative flow change = 0.349972
              Trial  3: relative flow change = 0.095173
              Trial  4: relative flow change = 0.006301
              Trial  5: relative flow change = 0.000027
              Trial  6: relative flow change = 0.000000
     0:00:00: Balanced after 6 trials
     0:00:00: Reservoir R1 is emptying
     0:00:00: Tank T8 is filling at 4.02 ft
   
   
  Hydraulic Status:
  -----------------------------------------------------------------------
     0:00:00: Balancing the network:
              Trial  1: relative flow change = 0.713560
              Trial  2: relative flow change = 0.362872
              Trial  3: relative flow change = 0.102273
              Trial  4: relative flow change = 0.006962
              Trial  5: relative flow change = 0.000033
              Trial  6: relative flow change = 0.000000
     0:00:00: Balanced after 6 trials
     0:00:00: Reservoir R1 is emptying
     0:00:00: Tank T8 is filling at 3.98 ft
   
   
  Hydraulic Status:
  -----------------------------------------------------------------------
     0:00:00: Balancing the network:
              Trial  1: relative flow change = 0.713272
              Trial  2: relative flow change = 0.359230
              Trial  3: relative flow change = 0.105798
              Trial  4: relative flow change = 0.007580
              Trial  5: relative flow change = 0.000040
              Trial  6: relative flow change = 0.000000
     0:00:00: Balanced after 6 trials
     0:00:00: Reservoir R1 is emptying
     0:00:00: Tank T8 is filling at 3.98 ft
   
   
  Hydraulic Status:
  -----------------------------------------------------------------------
     0:00:00: Balancing the network:
              Trial  1: relative flow change = 0.712079
              Trial  2: relative flow change = 0.356587
              Trial  3: relative flow change = 0.100271
              Trial  4: relative flow change = 0.006993
              Trial  5: relative flow change = 0.000034
              Trial  6: relative flow change = 0.000000
     0:00:00: Balanced after 6 trials
     0:00:00: Reservoir R1 is emptying
     0:00:00: Tank T8 is filling at 4.00 ft
   
   
  Hydraulic Status:
  -----------------------------------------------------------------------
     0:00:00: Balancing the network:
              Trial  1: relative flow change = 0.713127
              Trial  2: relative flow change = 0.357895
              Trial  3: relative flow change = 0.098399
              Trial  4: relative flow change = 0.006787
              Trial  5: relative flow change = 0.000032
              Trial  6: relative flow change = 0.000000
     0:00:00: Balanced after 6 trials
     0:00:00: Reservoir R1 is emptying
     0:00:00: Tank T8 is filling at 4.01 ft
   
   
  Hydraulic Status:
  -----------------------------------------------------------------------
     0:00:00: Balancing the network:
              Trial  1: relative flow change = 0.717007
              Trial  2: relative flow change = 0.364742
              Trial  3: relative flow change = 0.104690
              Trial  4: relative flow change = 0.007629
              Trial  5: relative flow change = 0.000041
              Trial  6: relative flow change = 0.000000
     0:00:00: Balanced after 6 trials
     0:00:00: Reservoir R1 is emptying
     0:00:00: Tank T8 is filling at 4.00 ft
   
   
  Hydraulic Status:
  -----------------------------------------------------------------------
     0:00:00: Balancing the network:
              Trial  1: relative flow change = 0.708152
              Trial  2: relative flow change = 0.350688
              Trial  3: relative flow change = 0.095655
              Trial  4: relative flow change = 0.006322
              Trial  5: relative flow change = 0.000028
              Trial  6: relative flow change = 0.000000
     0:00:00: Balanced after 6 trials
     0:00:00: Reservoir R1 is emptying
     0:00:00: Tank T8 is filling at 3.99 ft
   
   
  Hydraulic Status:
  -----------------------------------------------------------------------
     0:00:00: Balancing the network:
              Trial  1: relative flow change = 0.707367
              Trial  2: relative flow change = 0.355073
              Trial  3: relative flow change = 0.099737
              Trial  4: relative flow change = 0.006883
              Trial  5: relative flow change = 0.000033
              Trial  6: relative flow change = 0.000000
     0:00:00: Balanced after 6 trials
     0:00:00: Reservoir R1 is emptying
     0:00:00: Tank T8 is filling at 3.99 ft
   
   
  Hydraulic Status:
  -----------------------------------------------------------------------
     0:00:00: Balancing the network:
              Trial  1: relative flow change = 0.715264
              Trial  2: relative flow change = 0.357022
              Trial  3: relative flow change = 0.099639
              Trial  4: relative flow change = 0.007125
              Trial  5: relative flow change = 0.000035
              Trial  6: relative flow change = 0.000000
     0:00:00: Balanced after 6 trials
     0:00:00: Reservoir R1 is emptying
     0:00:00: Tank T8 is filling at 4.00 ft
   
   
  Hydraulic Status:
  -----------------------------------------------------------------------
     0:00:00: Balancing the network:
              Trial  1: relative flow change = 0.713051
              Trial  2: relative flow change = 0.354921
              Trial  3: relative flow change = 0.098636
              Trial  4: relative flow change = 0.006795
              Trial  5: relative flow change = 0.000032
              Trial  6: relative flow change = 0.000000
     0:00:00: Balanced after 6 trials
     0:00:00: Reservoir R1 is emptying
     0:00:00: Tank T8 is filling at 4.00 ft
   
   
  Hydraulic Status:
  -----------------------------------------------------------------------
     0:00:00: Balancing the network:
              Trial  1: relative flow change = 0.709429
              Trial  2: relative flow change = 0.353011
              Trial  3: relative flow change = 0.096755
              Trial  4: relative flow change = 0.006616
              Trial  5: relative flow change = 0.000031
              Trial  6: relative flow change = 0.000000
     0:00:00: Balanced after 6 trials
     0:00:00: Reservoir R1 is emptying
     0:00:00: Tank T8 is filling at 3.99 ft
   
   
  Hydraulic Status:
  -----------------------------------------------------------------------
     0:00:00: Balancing the network:
              Trial  1: relative flow change = 0.712815
              Trial  2: relative flow change = 0.357014
              Trial  3: relative flow change = 0.100900
              Trial  4: relative flow change = 0.007223
              Trial  5: relative flow change = 0.000036
              Trial  6: relative flow change = 0.000000
     0:00:00: Balanced after 6 trials
     0:00:00: Reservoir R1 is emptying
     0:00:00: Tank T8 is filling at 4.03 ft
   
   
  Hydraulic Status:
  -----------------------------------------------------------------------
     0:00:00: Balancing the network:
              Trial  1: relative flow change = 0.714307
              Trial  2: relative flow change = 0.359669
              Trial  3: relative flow change = 0.102046
              Trial  4: relative flow change = 0.007347
              Trial  5: relative flow change = 0.000037
              Trial  6: relative flow change = 0.000000
     0:00:00: Balanced after 6 trials
     0:00:00: Reservoir R1 is emptying
     0:00:00: Tank T8 is filling at 3.99 ft
   
   
  Hydraulic Status:
  -----------------------------------------------------------------------
     0:00:00: Balancing the network:
              Trial  1: relative flow change = 0.711292
              Trial  2: relative flow change = 0.352533
              Trial  3: relative flow change = 0.097059
              Trial  4: relative flow change = 0.006603
              Trial  5: relative flow change = 0.000030
              Trial  6: relative flow change = 0.000000
     0:00:00: Balanced after 6 trials
     0:00:00: Reservoir R1 is emptying
     0:00:00: Tank T8 is filling at 3.98 ft
   
   
  Hydraulic Status:
  -----------------------------------------------------------------------
     0:00:00: Balancing the network:
              Trial  1: relative flow change = 0.715556
              Trial  2: relative flow change = 0.359356
              Trial  3: relative flow change = 0.102953
              Trial  4: relative flow change = 0.007401
              Trial  5: relative flow change = 0.000038
              Trial  6: relative flow change = 0.000000
     0:00:00: Balanced after 6 trials
     0:00:00: Reservoir R1 is emptying
     0:00:00: Tank T8 is filling at 4.01 ft
   
   
  Hydraulic Status:
  -----------------------------------------------------------------------
     0:00:00: Balancing the network:
              Trial  1: relative flow change = 0.712132
              Trial  2: relative flow change = 0.355052
              Trial  3: relative flow change = 0.098054
              Trial  4: relative flow change = 0.006703
              Trial  5: relative flow change = 0.000031
              Trial  6: relative flow change = 0.000000
     0:00:00: Balanced after 6 trials
     0:00:00: Reservoir R1 is emptying
     0:00:00: Tank T8 is filling at 3.99 ft
   
   
  Hydraulic Status:
  -----------------------------------------------------------------------
     0:00:00: Balancing the network:
              Trial  1: relative flow change = 0.714396
              Trial  2: relative flow change = 0.363078
              Trial  3: relative flow change = 0.103768
              Trial  4: relative flow change = 0.007622
              Trial  5: relative flow change = 0.000040
              Trial  6: relative flow change = 0.000000
     0:00:00: Balanced after 6 trials
     0:00:00: Reservoir R1 is emptying
     0:00:00: Tank T8 is filling at 4.03 ft
   
   
  Hydraulic Status:
  -----------------------------------------------------------------------
     0:00:00: Balancing the network:
              Trial  1: relative flow change = 0.713950
              Trial  2: relative flow change = 0.363493
              Trial  3: relative flow change = 0.102342
              Trial  4: relative flow change = 0.007325
              Trial  5: relative flow change = 0.000037
              Trial  6: relative flow change = 0.000000
     0:00:00: Balanced after 6 trials
     0:00:00: Reservoir R1 is emptying
     0:00:00: Tank T8 is filling at 3.98 ft
   
   
  Hydraulic Status:
  -----------------------------------------------------------------------
     0:00:00: Balancing the network:
              Trial  1: relative flow change = 0.709377
              Trial  2: relative flow change = 0.352439
              Trial  3: relative flow change = 0.097072
              Trial  4: relative flow change = 0.006615
              Trial  5: relative flow change = 0.000030
              Trial  6: relative flow change = 0.000000
     0:00:00: Balanced after 6 trials
     0:00:00: Reservoir R1 is emptying
     0:00:00: Tank T8 is filling at 4.02 ft
   
   
  Hydraulic Status:
  -----------------------------------------------------------------------
     0:00:00: Balancing the network:
              Trial  1: relative flow change = 0.711334
              Trial  2: relative flow change = 0.355719
              Trial  3: relative flow change = 0.098346
              Trial  4: relative flow change = 0.006579
              Trial  5: relative flow change = 0.000030
              Trial  6: relative flow change = 0.000000
     0:00:00: Balanced after 6 trials
     0:00:00: Reservoir R1 is emptying
     0:00:00: Tank T8 is filling at 4.00 ft
   
   
  Hydraulic Status:
  -----------------------------------------------------------------------
     0:00:00: Balancing the network:
              Trial  1: relative flow change = 0.710739
              Trial  2: relative flow change = 0.353462
              Trial  3: relative flow change = 0.099485
              Trial  4: relative flow change = 0.006855
              Trial  5: relative flow change = 0.000033
              Trial  6: relative flow change = 0.000000
     0:00:00: Balanced after 6 trials
     0:00:00: Reservoir R1 is emptying
     0:00:00: Tank T8 is filling at 3.99 ft
   
   
  Hydraulic Status:
  -----------------------------------------------------------------------
     0:00:00: Balancing the network:
              Trial  1: relative flow change = 0.705185
              Trial  2: relative flow change = 0.353448
              Trial  3: relative flow change = 0.096021
              Trial  4: relative flow change = 0.006523
              Trial  5: relative flow change = 0.000030
              Trial  6: relative flow change = 0.000000
     0:00:00: Balanced after 6 trials
     0:00:00: Reservoir R1 is emptying
     0:00:00: Tank T8 is filling at 4.00 ft
   
   
  Hydraulic Status:
  -----------------------------------------------------------------------
     0:00:00: Balancing the network:
              Trial  1: relative flow change = 0.712603
              Trial  2: relative flow change = 0.356819
              Trial  3: relative flow change = 0.099758
              Trial  4: relative flow change = 0.007177
              Trial  5: relative flow change = 0.000036
              Trial  6: relative flow change = 0.000000
     0:00:00: Balanced after 6 trials
     0:00:00: Reservoir R1 is emptying
     0:00:00: Tank T8 is filling at 4.02 ft
   
   
  Hydraulic Status:
  -----------------------------------------------------------------------
     0:00:00: Balancing the network:
              Trial  1: relative flow change = 0.710675
              Trial  2: relative flow change = 0.353817
              Trial  3: relative flow change = 0.098162
              Trial  4: relative flow change = 0.006792
              Trial  5: relative flow change = 0.000032
              Trial  6: relative flow change = 0.000000
     0:00:00: Balanced after 6 trials
     0:00:00: Reservoir R1 is emptying
     0:00:00: Tank T8 is filling at 3.98 ft
   
   
  Hydraulic Status:
  -----------------------------------------------------------------------
     0:00:00: Balancing the network:
              Trial  1: relative flow change = 0.717075
              Trial  2: relative flow change = 0.362346
              Trial  3: relative flow change = 0.102456
              Trial  4: relative flow change = 0.007192
              Trial  5: relative flow change = 0.000036
              Trial  6: relative flow change = 0.000000
     0:00:00: Balanced after 6 trials
     0:00:00: Reservoir R1 is emptying
     0:00:00: Tank T8 is filling at 4.00 ft
   
   
  Hydraulic Status:
  -----------------------------------------------------------------------
     0:00:00: Balancing the network:
              Trial  1: relative flow change = 0.704864
              Trial  2: relative flow change = 0.350240
              Trial  3: relative flow change = 0.093467
              Trial  4: relative flow change = 0.006163
              Trial  5: relative flow change = 0.000026
              Trial  6: relative flow change = 0.000000
     0:00:00: Balanced after 6 trials
     0:00:00: Reservoir R1 is emptying
     0:00:00: Tank T8 is filling at 3.99 ft
   
   
  Hydraulic Status:
  -----------------------------------------------------------------------
     0:00:00: Balancing the network:
              Trial  1: relative flow change = 0.713497
              Trial  2: relative flow change = 0.356654
              Trial  3: relative flow change = 0.099399
              Trial  4: relative flow change = 0.007101
              Trial  5: relative flow change = 0.000035
              Trial  6: relative flow change = 0.000000
     0:00:00: Balanced after 6 trials
     0:00:00: Reservoir R1 is emptying
     0:00:00: Tank T8 is filling at 4.00 ft
   
   
  Hydraulic Status:
  -----------------------------------------------------------------------
     0:00:00: Balancing the network:
              Trial  1: relative flow change = 0.712997
              Trial  2: relative flow change = 0.356679
              Trial  3: relative flow change = 0.101422
              Trial  4: relative flow change = 0.007142
              Trial  5: relative flow change = 0.000035
              Trial  6: relative flow change = 0.000000
     0:00:00: Balanced after 6 trials
     0:00:00: Reservoir R1 is emptying
     0:00:00: Tank T8 is filling at 4.00 ft
   
   
  Hydraulic Status:
  -----------------------------------------------------------------------
     0:00:00: Balancing the network:
              Trial  1: relative flow change = 0.715053
              Trial  2: relative flow change = 0.363222
              Trial  3: relative flow change = 0.103682
              Trial  4: relative flow change = 0.007387
              Trial  5: relative flow change = 0.000038
              Trial  6: relative flow change = 0.000000
     0:00:00: Balanced after 6 trials
     0:00:00: Reservoir R1 is emptying
     0:00:00: Tank T8 is filling at 3.98 ft
   
   
  Hydraulic Status:
  -----------------------------------------------------------------------
     0:00:00: Balancing the network:
              Trial  1: relative flow change = 0.707408
              Trial  2: relative flow change = 0.353898
              Trial  3: relative flow change = 0.096706
              Trial  4: relative flow change = 0.006413
              Trial  5: relative flow change = 0.000028
              Trial  6: relative flow change = 0.000000
     0:00:00: Balanced after 6 trials
     0:00:00: Reservoir R1 is emptying
     0:00:00: Tank T8 is filling at 3.99 ft
   
   
  Hydraulic Status:
  -----------------------------------------------------------------------
     0:00:00: Balancing the network:
              Trial  1: relative flow change = 0.719947
              Trial  2: relative flow change = 0.364332
              Trial  3: relative flow change = 0.105051
              Trial  4: relative flow change = 0.007662
              Trial  5: relative flow change = 0.000041
              Trial  6: relative flow change = 0.000000
     0:00:00: Balanced after 6 trials
     0:00:00: Reservoir R1 is emptying
     0:00:00: Tank T8 is filling at 4.00 ft
   
   
  Hydraulic Status:
  -----------------------------------------------------------------------
     0:00:00: Balancing the network:
              Trial  1: relative flow change = 0.708876
              Trial  2: relative flow change = 0.357985
              Trial  3: relative flow change = 0.100030
              Trial  4: relative flow change = 0.007064
              Trial  5: relative flow change = 0.000035
              Trial  6: relative flow change = 0.000000
     0:00:00: Balanced after 6 trials
     0:00:00: Reservoir R1 is emptying
     0:00:00: Tank T8 is filling at 3.99 ft
   
   
  Hydraulic Status:
  -----------------------------------------------------------------------
     0:00:00: Balancing the network:
              Trial  1: relative flow change = 0.712872
              Trial  2: relative flow change = 0.358123
              Trial  3: relative flow change = 0.100429
              Trial  4: relative flow change = 0.006978
              Trial  5: relative flow change = 0.000034
              Trial  6: relative flow change = 0.000000
     0:00:00: Balanced after 6 trials
     0:00:00: Reservoir R1 is emptying
     0:00:00: Tank T8 is filling at 4.01 ft
   
   
  Hydraulic Status:
  -----------------------------------------------------------------------
     0:00:00: Balancing the network:
              Trial  1: relative flow change = 0.713530
              Trial  2: relative flow change = 0.355819
              Trial  3: relative flow change = 0.100129
              Trial  4: relative flow change = 0.006980
              Trial  5: relative flow change = 0.000034
              Trial  6: relative flow change = 0.000000
     0:00:00: Balanced after 6 trials
     0:00:00: Reservoir R1 is emptying
     0:00:00: Tank T8 is filling at 4.00 ft
   
   
  Hydraulic Status:
  -----------------------------------------------------------------------
     0:00:00: Balancing the network:
              Trial  1: relative flow change = 0.707042
              Trial  2: relative flow change = 0.353813
              Trial  3: relative flow change = 0.096022
              Trial  4: relative flow change = 0.006440
              Trial  5: relative flow change = 0.000029
              Trial  6: relative flow change = 0.000000
     0:00:00: Balanced after 6 trials
     0:00:00: Reservoir R1 is emptying
     0:00:00: Tank T8 is filling at 4.00 ft
   
   
  Hydraulic Status:
  -----------------------------------------------------------------------
     0:00:00: Balancing the network:
              Trial  1: relative flow change = 0.715217
              Trial  2: relative flow change = 0.356195
              Trial  3: relative flow change = 0.100149
              Trial  4: relative flow change = 0.007195
              Trial  5: relative flow change = 0.000036
              Trial  6: relative flow change = 0.000000
     0:00:00: Balanced after 6 trials
     0:00:00: Reservoir R1 is emptying
     0:00:00: Tank T8 is filling at 4.00 ft
   
   
  Hydraulic Status:
  -----------------------------------------------------------------------
     0:00:00: Balancing the network:
              Trial  1: relative flow change = 0.708860
              Trial  2: relative flow change = 0.355775
              Trial  3: relative flow change = 0.099460
              Trial  4: relative flow change = 0.006808
              Trial  5: relative flow change = 0.000032
              Trial  6: relative flow change = 0.000000
     0:00:00: Balanced after 6 trials
     0:00:00: Reservoir R1 is emptying
     0:00:00: Tank T8 is filling at 3.98 ft
   
   
  Hydraulic Status:
  -----------------------------------------------------------------------
     0:00:00: Balancing the network:
              Trial  1: relative flow change = 0.709289
              Trial  2: relative flow change = 0.358359
              Trial  3: relative flow change = 0.099398
              Trial  4: relative flow change = 0.006878
              Trial  5: relative flow change = 0.000033
              Trial  6: relative flow change = 0.000000
     0:00:00: Balanced after 6 trials
     0:00:00: Reservoir R1 is emptying
     0:00:00: Tank T8 is filling at 4.00 ft
   
   
  Hydraulic Status:
  -----------------------------------------------------------------------
     0:00:00: Balancing the network:
              Trial  1: relative flow change = 0.713340
              Trial  2: relative flow change = 0.359127
              Trial  3: relative flow change = 0.101219
              Trial  4: relative flow change = 0.007204
              Trial  5: relative flow change = 0.000036
              Trial  6: relative flow change = 0.000000
     0:00:00: Balanced after 6 trials
     0:00:00: Reservoir R1 is emptying
     0:00:00: Tank T8 is filling at 4.01 ft
   
   
  Hydraulic Status:
  -----------------------------------------------------------------------
     0:00:00: Balancing the network:
              Trial  1: relative flow change = 0.713206
              Trial  2: relative flow change = 0.362053
              Trial  3: relative flow change = 0.101594
              Trial  4: relative flow change = 0.006979
              Trial  5: relative flow change = 0.000033
              Trial  6: relative flow change = 0.000000
     0:00:00: Balanced after 6 trials
     0:00:00: Reservoir R1 is emptying
     0:00:00: Tank T8 is filling at 4.04 ft
   
   
  Hydraulic Status:
  -----------------------------------------------------------------------
     0:00:00: Balancing the network:
              Trial  1: relative flow change = 0.711088
              Trial  2: relative flow change = 0.356738
              Trial  3: relative flow change = 0.098602
              Trial  4: relative flow change = 0.006882
              Trial  5: relative flow change = 0.000033
              Trial  6: relative flow change = 0.000000
     0:00:00: Balanced after 6 trials
     0:00:00: Reservoir R1 is emptying
     0:00:00: Tank T8 is filling at 3.97 ft
   
   
  Hydraulic Status:
  -----------------------------------------------------------------------
     0:00:00: Balancing the network:
              Trial  1: relative flow change = 0.712816
              Trial  2: relative flow change = 0.361190
              Trial  3: relative flow change = 0.101230
              Trial  4: relative flow change = 0.007181
              Trial  5: relative flow change = 0.000036
              Trial  6: relative flow change = 0.000000
     0:00:00: Balanced after 6 trials
     0:00:00: Reservoir R1 is emptying
     0:00:00: Tank T8 is filling at 4.00 ft
   
   
  Hydraulic Status:
  -----------------------------------------------------------------------
     0:00:00: Balancing the network:
              Trial  1: relative flow change = 0.712548
              Trial  2: relative flow change = 0.359838
              Trial  3: relative flow change = 0.101280
              Trial  4: relative flow change = 0.007008
              Trial  5: relative flow change = 0.000034
              Trial  6: relative flow change = 0.000000
     0:00:00: Balanced after 6 trials
     0:00:00: Reservoir R1 is emptying
     0:00:00: Tank T8 is filling at 4.02 ft
   
   
  Hydraulic Status:
  -----------------------------------------------------------------------
     0:00:00: Balancing the network:
              Trial  1: relative flow change = 0.712187
              Trial  2: relative flow change = 0.353280
              Trial  3: relative flow change = 0.096308
              Trial  4: relative flow change = 0.006464
              Trial  5: relative flow change = 0.000029
              Trial  6: relative flow change = 0.000000
     0:00:00: Balanced after 6 trials
     0:00:00: Reservoir R1 is emptying
     0:00:00: Tank T8 is filling at 3.99 ft
   
   
  Hydraulic Status:
  -----------------------------------------------------------------------
     0:00:00: Balancing the network:
              Trial  1: relative flow change = 0.712691
              Trial  2: relative flow change = 0.360848
              Trial  3: relative flow change = 0.101969
              Trial  4: relative flow change = 0.007035
              Trial  5: relative flow change = 0.000034
              Trial  6: relative flow change = 0.000000
     0:00:00: Balanced after 6 trials
     0:00:00: Reservoir R1 is emptying
     0:00:00: Tank T8 is filling at 4.02 ft
   
   
  Hydraulic Status:
  -----------------------------------------------------------------------
     0:00:00: Balancing the network:
              Trial  1: relative flow change = 0.709268
              Trial  2: relative flow change = 0.357479
              Trial  3: relative flow change = 0.097518
              Trial  4: relative flow change = 0.006391
              Trial  5: relative flow change = 0.000028
              Trial  6: relative flow change = 0.000000
     0:00:00: Balanced after 6 trials
     0:00:00: Reservoir R1 is emptying
     0:00:00: Tank T8 is filling at 3.98 ft
   
   
  Hydraulic Status:
  -----------------------------------------------------------------------
     0:00:00: Balancing the network:
              Trial  1: relative flow change = 0.710580
              Trial  2: relative flow change = 0.361367
              Trial  3: relative flow change = 0.100602
              Trial  4: relative flow change = 0.006953
              Trial  5: relative flow change = 0.000033
              Trial  6: relative flow change = 0.000000
     0:00:00: Balanced after 6 trials
     0:00:00: Reservoir R1 is emptying
     0:00:00: Tank T8 is filling at 4.00 ft
   
   
  Hydraulic Status:
  -----------------------------------------------------------------------
     0:00:00: Balancing the network:
              Trial  1: relative flow change = 0.713301
              Trial  2: relative flow change = 0.360102
              Trial  3: relative flow change = 0.101550
              Trial  4: relative flow change = 0.007041
              Trial  5: relative flow change = 0.000034
              Trial  6: relative flow change = 0.000000
     0:00:00: Balanced after 6 trials
     0:00:00: Reservoir R1 is emptying
     0:00:00: Tank T8 is filling at 4.01 ft
   
   
  Hydraulic Status:
  -----------------------------------------------------------------------
     0:00:00: Balancing the network:
              Trial  1: relative flow change = 0.706566
              Trial  2: relative flow change = 0.352954
              Trial  3: relative flow change = 0.096241
              Trial  4: relative flow change = 0.006574
              Trial  5: relative flow change = 0.000030
              Trial  6: relative flow change = 0.000000
     0:00:00: Balanced after 6 trials
     0:00:00: Reservoir R1 is emptying
     0:00:00: Tank T8 is filling at 3.99 ft
   
   
  Hydraulic Status:
  -----------------------------------------------------------------------
     0:00:00: Balancing the network:
              Trial  1: relative flow change = 0.716450
              Trial  2: relative flow change = 0.359569
              Trial  3: relative flow change = 0.101559
              Trial  4: relative flow change = 0.007243
              Trial  5: relative flow change = 0.000036
              Trial  6: relative flow change = 0.000000
     0:00:00: Balanced after 6 trials
     0:00:00: Reservoir R1 is emptying
     0:00:00: Tank T8 is filling at 4.01 ft
   
   
  Hydraulic Status:
  -----------------------------------------------------------------------
     0:00:00: Balancing the network:
              Trial  1: relative flow change = 0.709049
              Trial  2: relative flow change = 0.357534
              Trial  3: relative flow change = 0.099030
              Trial  4: relative flow change = 0.006899
              Trial  5: relative flow change = 0.000033
              Trial  6: relative flow change = 0.000000
     0:00:00: Balanced after 6 trials
     0:00:00: Reservoir R1 is emptying
     0:00:00: Tank T8 is filling at 3.97 ft
   
   
  Hydraulic Status:
  -----------------------------------------------------------------------
     0:00:00: Balancing the network:
              Trial  1: relative flow change = 0.712048
              Trial  2: relative flow change = 0.357310
              Trial  3: relative flow change = 0.100058
              Trial  4: relative flow change = 0.007100
              Trial  5: relative flow change = 0.000035
              Trial  6: relative flow change = 0.000000
     0:00:00: Balanced after 6 trials
     0:00:00: Reservoir R1 is emptying
     0:00:00: Tank T8 is filling at 4.01 ft
   
   
  Hydraulic Status:
  -----------------------------------------------------------------------
     0:00:00: Balancing the network:
              Trial  1: relative flow change = 0.710127
              Trial  2: relative flow change = 0.354042
              Trial  3: relative flow change = 0.097100
              Trial  4: relative flow change = 0.006441
              Trial  5: relative flow change = 0.000029
              Trial  6: relative flow change = 0.000000
     0:00:00: Balanced after 6 trials
     0:00:00: Reservoir R1 is emptying
     0:00:00: Tank T8 is filling at 3.98 ft
   
   
  Hydraulic Status:
  -----------------------------------------------------------------------
     0:00:00: Balancing the network:
              Trial  1: relative flow change = 0.706020
              Trial  2: relative flow change = 0.353220
              Trial  3: relative flow change = 0.097734
              Trial  4: relative flow change = 0.006631
              Trial  5: relative flow change = 0.000030
              Trial  6: relative flow change = 0.000000
     0:00:00: Balanced after 6 trials
     0:00:00: Reservoir R1 is emptying
     0:00:00: Tank T8 is filling at 3.99 ft
   
   
  Hydraulic Status:
  -----------------------------------------------------------------------
     0:00:00: Balancing the network:
              Trial  1: relative flow change = 0.712601
              Trial  2: relative flow change = 0.358431
              Trial  3: relative flow change = 0.099124
              Trial  4: relative flow change = 0.006794
              Trial  5: relative flow change = 0.000032
              Trial  6: relative flow change = 0.000000
     0:00:00: Balanced after 6 trials
     0:00:00: Reservoir R1 is emptying
     0:00:00: Tank T8 is filling at 4.03 ft
   
   
  Hydraulic Status:
  -----------------------------------------------------------------------
     0:00:00: Balancing the network:
              Trial  1: relative flow change = 0.712069
              Trial  2: relative flow change = 0.359411
              Trial  3: relative flow change = 0.099421
              Trial  4: relative flow change = 0.006827
              Trial  5: relative flow change = 0.000032
              Trial  6: relative flow change = 0.000000
     0:00:00: Balanced after 6 trials
     0:00:00: Reservoir R1 is emptying
     0:00:00: Tank T8 is filling at 4.00 ft
   
   
  Hydraulic Status:
  -----------------------------------------------------------------------
     0:00:00: Balancing the network:
              Trial  1: relative flow change = 0.705502
              Trial  2: relative flow change = 0.355615
              Trial  3: relative flow change = 0.097714
              Trial  4: relative flow change = 0.006796
              Trial  5: relative flow change = 0.000032
              Trial  6: relative flow change = 0.000000
     0:00:00: Balanced after 6 trials
     0:00:00: Reservoir R1 is emptying
     0:00:00: Tank T8 is filling at 4.01 ft
   
   
  Hydraulic Status:
  -----------------------------------------------------------------------
     0:00:00: Balancing the network:
              Trial  1: relative flow change = 0.715067
              Trial  2: relative flow change = 0.359802
              Trial  3: relative flow change = 0.101508
              Trial  4: relative flow change = 0.007215
              Trial  5: relative flow change = 0.000036
              Trial  6: relative flow change = 0.000000
     0:00:00: Balanced after 6 trials
     0:00:00: Reservoir R1 is emptying
     0:00:00: Tank T8 is filling at 3.98 ft
   
   
  Hydraulic Status:
  -----------------------------------------------------------------------
     0:00:00: Balancing the network:
              Trial  1: relative flow change = 0.710292
              Trial  2: relative flow change = 0.357158
              Trial  3: relative flow change = 0.099634
              Trial  4: relative flow change = 0.006865
              Trial  5: relative flow change = 0.000033
              Trial  6: relative flow change = 0.000000
     0:00:00: Balanced after 6 trials
     0:00:00: Reservoir R1 is emptying
     0:00:00: Tank T8 is filling at 4.02 ft
   
   
  Hydraulic Status:
  -----------------------------------------------------------------------
     0:00:00: Balancing the network:
              Trial  1: relative flow change = 0.715276
              Trial  2: relative flow change = 0.360742
              Trial  3: relative flow change = 0.101508
              Trial  4: relative flow change = 0.007051
              Trial  5: relative flow change = 0.000034
              Trial  6: relative flow change = 0.000000
     0:00:00: Balanced after 6 trials
     0:00:00: Reservoir R1 is emptying
     0:00:00: Tank T8 is filling at 3.99 ft
   
   
  Hydraulic Status:
  -----------------------------------------------------------------------
     0:00:00: Balancing the network:
              Trial  1: relative flow change = 0.708757
              Trial  2: relative flow change = 0.356140
              Trial  3: relative flow change = 0.098771
              Trial  4: relative flow change = 0.006651
              Trial  5: relative flow change = 0.000030
              Trial  6: relative flow change = 0.000000
     0:00:00: Balanced after 6 trials
     0:00:00: Reservoir R1 is emptying
     0:00:00: Tank T8 is filling at 4.02 ft
   
   
  Hydraulic Status:
  -----------------------------------------------------------------------
     0:00:00: Balancing the network:
              Trial  1: relative flow change = 0.711771
              Trial  2: relative flow change = 0.358579
              Trial  3: relative flow change = 0.099962
              Trial  4: relative flow change = 0.007039
              Trial  5: relative flow change = 0.000034
              Trial  6: relative flow change = 0.000000
     0:00:00: Balanced after 6 trials
     0:00:00: Reservoir R1 is emptying
     0:00:00: Tank T8 is filling at 4.02 ft
   
   
  Hydraulic Status:
  -----------------------------------------------------------------------
     0:00:00: Balancing the network:
              Trial  1: relative flow change = 0.711628
              Trial  2: relative flow change = 0.362324
              Trial  3: relative flow change = 0.102488
              Trial  4: relative flow change = 0.007025
              Trial  5: relative flow change = 0.000033
              Trial  6: relative flow change = 0.000000
     0:00:00: Balanced after 6 trials
     0:00:00: Reservoir R1 is emptying
     0:00:00: Tank T8 is filling at 4.00 ft
   
   
  Hydraulic Status:
  -----------------------------------------------------------------------
     0:00:00: Balancing the network:
              Trial  1: relative flow change = 0.709111
              Trial  2: relative flow change = 0.352525
              Trial  3: relative flow change = 0.098323
              Trial  4: relative flow change = 0.006744
              Trial  5: relative flow change = 0.000032
              Trial  6: relative flow change = 0.000000
     0:00:00: Balanced after 6 trials
     0:00:00: Reservoir R1 is emptying
     0:00:00: Tank T8 is filling at 4.00 ft
   
   
  Hydraulic Status:
  -----------------------------------------------------------------------
     0:00:00: Balancing the network:
              Trial  1: relative flow change = 0.712707
              Trial  2: relative flow change = 0.360997
              Trial  3: relative flow change = 0.102016
              Trial  4: relative flow change = 0.007275
              Trial  5: relative flow change = 0.000037
              Trial  6: relative flow change = 0.000000
     0:00:00: Balanced after 6 trials
     0:00:00: Reservoir R1 is emptying
     0:00:00: Tank T8 is filling at 4.01 ft
   
   
  Hydraulic Status:
  -----------------------------------------------------------------------
     0:00:00: Balancing the network:
              Trial  1: relative flow change = 0.714419
              Trial  2: relative flow change = 0.360040
              Trial  3: relative flow change = 0.102736
              Trial  4: relative flow change = 0.007336
              Trial  5: relative flow change = 0.000037
              Trial  6: relative flow change = 0.000000
     0:00:00: Balanced after 6 trials
     0:00:00: Reservoir R1 is emptying
     0:00:00: Tank T8 is filling at 4.01 ft
   
   
  Hydraulic Status:
  -----------------------------------------------------------------------
     0:00:00: Balancing the network:
              Trial  1: relative flow change = 0.713475
              Trial  2: relative flow change = 0.359154
              Trial  3: relative flow change = 0.103318
              Trial  4: relative flow change = 0.007418
              Trial  5: relative flow change = 0.000038
              Trial  6: relative flow change = 0.000000
     0:00:00: Balanced after 6 trials
     0:00:00: Reservoir R1 is emptying
     0:00:00: Tank T8 is filling at 4.00 ft
   
   
  Hydraulic Status:
  -----------------------------------------------------------------------
     0:00:00: Balancing the network:
              Trial  1: relative flow change = 0.717509
              Trial  2: relative flow change = 0.363983
              Trial  3: relative flow change = 0.104305
              Trial  4: relative flow change = 0.007404
              Trial  5: relative flow change = 0.000038
              Trial  6: relative flow change = 0.000000
     0:00:00: Balanced after 6 trials
     0:00:00: Reservoir R1 is emptying
     0:00:00: Tank T8 is filling at 4.00 ft
   
   
  Hydraulic Status:
  -----------------------------------------------------------------------
     0:00:00: Balancing the network:
              Trial  1: relative flow change = 0.717489
              Trial  2: relative flow change = 0.362334
              Trial  3: relative flow change = 0.103575
              Trial  4: relative flow change = 0.007352
              Trial  5: relative flow change = 0.000037
              Trial  6: relative flow change = 0.000000
     0:00:00: Balanced after 6 trials
     0:00:00: Reservoir R1 is emptying
     0:00:00: Tank T8 is filling at 4.04 ft
   
   
  Hydraulic Status:
  -----------------------------------------------------------------------
     0:00:00: Balancing the network:
              Trial  1: relative flow change = 0.709971
              Trial  2: relative flow change = 0.352233
              Trial  3: relative flow change = 0.096138
              Trial  4: relative flow change = 0.006552
              Trial  5: relative flow change = 0.000030
              Trial  6: relative flow change = 0.000000
     0:00:00: Balanced after 6 trials
     0:00:00: Reservoir R1 is emptying
     0:00:00: Tank T8 is filling at 4.00 ft
   
   
  Hydraulic Status:
  -----------------------------------------------------------------------
     0:00:00: Balancing the network:
              Trial  1: relative flow change = 0.713110
              Trial  2: relative flow change = 0.359546
              Trial  3: relative flow change = 0.102731
              Trial  4: relative flow change = 0.007602
              Trial  5: relative flow change = 0.000038
              Trial  6: relative flow change = 0.000000
     0:00:00: Balanced after 6 trials
     0:00:00: Reservoir R1 is emptying
     0:00:00: Tank T8 is filling at 4.01 ft
   
   
  Hydraulic Status:
  -----------------------------------------------------------------------
     0:00:00: Balancing the network:
              Trial  1: relative flow change = 0.716899
              Trial  2: relative flow change = 0.362248
              Trial  3: relative flow change = 0.103377
              Trial  4: relative flow change = 0.007480
              Trial  5: relative flow change = 0.000039
              Trial  6: relative flow change = 0.000000
     0:00:00: Balanced after 6 trials
     0:00:00: Reservoir R1 is emptying
     0:00:00: Tank T8 is filling at 3.99 ft
   
   
  Hydraulic Status:
  -----------------------------------------------------------------------
     0:00:00: Balancing the network:
              Trial  1: relative flow change = 0.709999
              Trial  2: relative flow change = 0.359463
              Trial  3: relative flow change = 0.100305
              Trial  4: relative flow change = 0.006914
              Trial  5: relative flow change = 0.000033
              Trial  6: relative flow change = 0.000000
     0:00:00: Balanced after 6 trials
     0:00:00: Reservoir R1 is emptying
     0:00:00: Tank T8 is filling at 3.96 ft
   
   
  Hydraulic Status:
  -----------------------------------------------------------------------
     0:00:00: Balancing the network:
              Trial  1: relative flow change = 0.706048
              Trial  2: relative flow change = 0.351093
              Trial  3: relative flow change = 0.095082
              Trial  4: relative flow change = 0.006330
              Trial  5: relative flow change = 0.000028
              Trial  6: relative flow change = 0.000000
     0:00:00: Balanced after 6 trials
     0:00:00: Reservoir R1 is emptying
     0:00:00: Tank T8 is filling at 4.00 ft
   
   
  Hydraulic Status:
  -----------------------------------------------------------------------
     0:00:00: Balancing the network:
              Trial  1: relative flow change = 0.715598
              Trial  2: relative flow change = 0.362797
              Trial  3: relative flow change = 0.102003
              Trial  4: relative flow change = 0.007463
              Trial  5: relative flow change = 0.000039
              Trial  6: relative flow change = 0.000000
     0:00:00: Balanced after 6 trials
     0:00:00: Reservoir R1 is emptying
     0:00:00: Tank T8 is filling at 3.99 ft
   
   
  Hydraulic Status:
  -----------------------------------------------------------------------
     0:00:00: Balancing the network:
              Trial  1: relative flow change = 0.710019
              Trial  2: relative flow change = 0.358457
              Trial  3: relative flow change = 0.099967
              Trial  4: relative flow change = 0.006803
              Trial  5: relative flow change = 0.000032
              Trial  6: relative flow change = 0.000000
     0:00:00: Balanced after 6 trials
     0:00:00: Reservoir R1 is emptying
     0:00:00: Tank T8 is filling at 4.01 ft
   
   
  Hydraulic Status:
  -----------------------------------------------------------------------
     0:00:00: Balancing the network:
              Trial  1: relative flow change = 0.715458
              Trial  2: relative flow change = 0.362098
              Trial  3: relative flow change = 0.102773
              Trial  4: relative flow change = 0.007243
              Trial  5: relative flow change = 0.000036
              Trial  6: relative flow change = 0.000000
     0:00:00: Balanced after 6 trials
     0:00:00: Reservoir R1 is emptying
     0:00:00: Tank T8 is filling at 3.99 ft
   
   
  Hydraulic Status:
  -----------------------------------------------------------------------
     0:00:00: Balancing the network:
              Trial  1: relative flow change = 0.714931
              Trial  2: relative flow change = 0.362622
              Trial  3: relative flow change = 0.103034
              Trial  4: relative flow change = 0.007349
              Trial  5: relative flow change = 0.000038
              Trial  6: relative flow change = 0.000000
     0:00:00: Balanced after 6 trials
     0:00:00: Reservoir R1 is emptying
     0:00:00: Tank T8 is filling at 3.98 ft
   
   
  Hydraulic Status:
  -----------------------------------------------------------------------
     0:00:00: Balancing the network:
              Trial  1: relative flow change = 0.713735
              Trial  2: relative flow change = 0.366551
              Trial  3: relative flow change = 0.104562
              Trial  4: relative flow change = 0.007506
              Trial  5: relative flow change = 0.000039
              Trial  6: relative flow change = 0.000000
     0:00:00: Balanced after 6 trials
     0:00:00: Reservoir R1 is emptying
     0:00:00: Tank T8 is filling at 4.02 ft
   
   
  Hydraulic Status:
  -----------------------------------------------------------------------
     0:00:00: Balancing the network:
              Trial  1: relative flow change = 0.708897
              Trial  2: relative flow change = 0.350530
              Trial  3: relative flow change = 0.094781
              Trial  4: relative flow change = 0.006214
              Trial  5: relative flow change = 0.000027
              Trial  6: relative flow change = 0.000000
     0:00:00: Balanced after 6 trials
     0:00:00: Reservoir R1 is emptying
     0:00:00: Tank T8 is filling at 4.00 ft
   
   
  Hydraulic Status:
  -----------------------------------------------------------------------
     0:00:00: Balancing the network:
              Trial  1: relative flow change = 0.718105
              Trial  2: relative flow change = 0.362974
              Trial  3: relative flow change = 0.104154
              Trial  4: relative flow change = 0.007621
              Trial  5: relative flow change = 0.000041
              Trial  6: relative flow change = 0.000000
     0:00:00: Balanced after 6 trials
     0:00:00: Reservoir R1 is emptying
     0:00:00: Tank T8 is filling at 4.00 ft
   
   
  Hydraulic Status:
  -----------------------------------------------------------------------
     0:00:00: Balancing the network:
              Trial  1: relative flow change = 0.718821
              Trial  2: relative flow change = 0.362817
              Trial  3: relative flow change = 0.104023
              Trial  4: relative flow change = 0.007499
              Trial  5: relative flow change = 0.000039
              Trial  6: relative flow change = 0.000000
     0:00:00: Balanced after 6 trials
     0:00:00: Reservoir R1 is emptying
     0:00:00: Tank T8 is filling at 4.02 ft
   
   
  Hydraulic Status:
  -----------------------------------------------------------------------
     0:00:00: Balancing the network:
              Trial  1: relative flow change = 0.710489
              Trial  2: relative flow change = 0.356021
              Trial  3: relative flow change = 0.097628
              Trial  4: relative flow change = 0.006541
              Trial  5: relative flow change = 0.000030
              Trial  6: relative flow change = 0.000000
     0:00:00: Balanced after 6 trials
     0:00:00: Reservoir R1 is emptying
     0:00:00: Tank T8 is filling at 4.03 ft
   
   
  Hydraulic Status:
  -----------------------------------------------------------------------
     0:00:00: Balancing the network:
              Trial  1: relative flow change = 0.712826
              Trial  2: relative flow change = 0.362188
              Trial  3: relative flow change = 0.103208
              Trial  4: relative flow change = 0.007595
              Trial  5: relative flow change = 0.000040
              Trial  6: relative flow change = 0.000000
     0:00:00: Balanced after 6 trials
     0:00:00: Reservoir R1 is emptying
     0:00:00: Tank T8 is filling at 4.01 ft
   
   
  Hydraulic Status:
  -----------------------------------------------------------------------
     0:00:00: Balancing the network:
              Trial  1: relative flow change = 0.710788
              Trial  2: relative flow change = 0.353561
              Trial  3: relative flow change = 0.096530
              Trial  4: relative flow change = 0.006507
              Trial  5: relative flow change = 0.000030
              Trial  6: relative flow change = 0.000000
     0:00:00: Balanced after 6 trials
     0:00:00: Reservoir R1 is emptying
     0:00:00: Tank T8 is filling at 4.01 ft
   
   
  Hydraulic Status:
  -----------------------------------------------------------------------
     0:00:00: Balancing the network:
              Trial  1: relative flow change = 0.716705
              Trial  2: relative flow change = 0.362333
              Trial  3: relative flow change = 0.102961
              Trial  4: relative flow change = 0.007403
              Trial  5: relative flow change = 0.000038
              Trial  6: relative flow change = 0.000000
     0:00:00: Balanced after 6 trials
     0:00:00: Reservoir R1 is emptying
     0:00:00: Tank T8 is filling at 3.99 ft
   
   
  Hydraulic Status:
  -----------------------------------------------------------------------
     0:00:00: Balancing the network:
              Trial  1: relative flow change = 0.712111
              Trial  2: relative flow change = 0.360012
              Trial  3: relative flow change = 0.102347
              Trial  4: relative flow change = 0.007261
              Trial  5: relative flow change = 0.000037
              Trial  6: relative flow change = 0.000000
     0:00:00: Balanced after 6 trials
     0:00:00: Reservoir R1 is emptying
     0:00:00: Tank T8 is filling at 4.02 ft
   
   
  Hydraulic Status:
  -----------------------------------------------------------------------
     0:00:00: Balancing the network:
              Trial  1: relative flow change = 0.716173
              Trial  2: relative flow change = 0.361637
              Trial  3: relative flow change = 0.102385
              Trial  4: relative flow change = 0.007268
              Trial  5: relative flow change = 0.000037
              Trial  6: relative flow change = 0.000000
     0:00:00: Balanced after 6 trials
     0:00:00: Reservoir R1 is emptying
     0:00:00: Tank T8 is filling at 4.00 ft
   
   
  Hydraulic Status:
  -----------------------------------------------------------------------
     0:00:00: Balancing the network:
              Trial  1: relative flow change = 0.715459
              Trial  2: relative flow change = 0.361415
              Trial  3: relative flow change = 0.102534
              Trial  4: relative flow change = 0.007174
              Trial  5: relative flow change = 0.000035
              Trial  6: relative flow change = 0.000000
     0:00:00: Balanced after 6 trials
     0:00:00: Reservoir R1 is emptying
     0:00:00: Tank T8 is filling at 3.97 ft
   
   
  Hydraulic Status:
  -----------------------------------------------------------------------
     0:00:00: Balancing the network:
              Trial  1: relative flow change = 0.713200
              Trial  2: relative flow change = 0.356537
              Trial  3: relative flow change = 0.098822
              Trial  4: relative flow change = 0.006755
              Trial  5: relative flow change = 0.000032
              Trial  6: relative flow change = 0.000000
     0:00:00: Balanced after 6 trials
     0:00:00: Reservoir R1 is emptying
     0:00:00: Tank T8 is filling at 4.00 ft
   
   
  Hydraulic Status:
  -----------------------------------------------------------------------
     0:00:00: Balancing the network:
              Trial  1: relative flow change = 0.714584
              Trial  2: relative flow change = 0.359972
              Trial  3: relative flow change = 0.102842
              Trial  4: relative flow change = 0.007473
              Trial  5: relative flow change = 0.000039
              Trial  6: relative flow change = 0.000000
     0:00:00: Balanced after 6 trials
     0:00:00: Reservoir R1 is emptying
     0:00:00: Tank T8 is filling at 4.00 ft
   
   
  Hydraulic Status:
  -----------------------------------------------------------------------
     0:00:00: Balancing the network:
              Trial  1: relative flow change = 0.718649
              Trial  2: relative flow change = 0.363635
              Trial  3: relative flow change = 0.104405
              Trial  4: relative flow change = 0.007665
              Trial  5: relative flow change = 0.000041
              Trial  6: relative flow change = 0.000000
     0:00:00: Balanced after 6 trials
     0:00:00: Reservoir R1 is emptying
     0:00:00: Tank T8 is filling at 3.99 ft
   
   
  Hydraulic Status:
  -----------------------------------------------------------------------
     0:00:00: Balancing the network:
              Trial  1: relative flow change = 0.711689
              Trial  2: relative flow change = 0.355682
              Trial  3: relative flow change = 0.097555
              Trial  4: relative flow change = 0.006567
              Trial  5: relative flow change = 0.000030
              Trial  6: relative flow change = 0.000000
     0:00:00: Balanced after 6 trials
     0:00:00: Reservoir R1 is emptying
     0:00:00: Tank T8 is filling at 4.01 ft
   
   
  Hydraulic Status:
  -----------------------------------------------------------------------
     0:00:00: Balancing the network:
              Trial  1: relative flow change = 0.714434
              Trial  2: relative flow change = 0.364885
              Trial  3: relative flow change = 0.103781
              Trial  4: relative flow change = 0.007209
              Trial  5: relative flow change = 0.000035
              Trial  6: relative flow change = 0.000000
     0:00:00: Balanced after 6 trials
     0:00:00: Reservoir R1 is emptying
     0:00:00: Tank T8 is filling at 4.00 ft
   
   
  Hydraulic Status:
  -----------------------------------------------------------------------
     0:00:00: Balancing the network:
              Trial  1: relative flow change = 0.715944
              Trial  2: relative flow change = 0.363073
              Trial  3: relative flow change = 0.102696
              Trial  4: relative flow change = 0.007179
              Trial  5: relative flow change = 0.000035
              Trial  6: relative flow change = 0.000000
     0:00:00: Balanced after 6 trials
     0:00:00: Reservoir R1 is emptying
     0:00:00: Tank T8 is filling at 4.01 ft
   
   
  Hydraulic Status:
  -----------------------------------------------------------------------
     0:00:00: Balancing the network:
              Trial  1: relative flow change = 0.710391
              Trial  2: relative flow change = 0.358397
              Trial  3: relative flow change = 0.098682
              Trial  4: relative flow change = 0.006901
              Trial  5: relative flow change = 0.000033
              Trial  6: relative flow change = 0.000000
     0:00:00: Balanced after 6 trials
     0:00:00: Reservoir R1 is emptying
     0:00:00: Tank T8 is filling at 4.02 ft
   
   
  Hydraulic Status:
  -----------------------------------------------------------------------
     0:00:00: Balancing the network:
              Trial  1: relative flow change = 0.710140
              Trial  2: relative flow change = 0.359460
              Trial  3: relative flow change = 0.100132
              Trial  4: relative flow change = 0.006837
              Trial  5: relative flow change = 0.000032
              Trial  6: relative flow change = 0.000000
     0:00:00: Balanced after 6 trials
     0:00:00: Reservoir R1 is emptying
     0:00:00: Tank T8 is filling at 4.01 ft
   
   
  Hydraulic Status:
  -----------------------------------------------------------------------
     0:00:00: Balancing the network:
              Trial  1: relative flow change = 0.713333
              Trial  2: relative flow change = 0.363612
              Trial  3: relative flow change = 0.102555
              Trial  4: relative flow change = 0.007178
              Trial  5: relative flow change = 0.000035
              Trial  6: relative flow change = 0.000000
     0:00:00: Balanced after 6 trials
     0:00:00: Reservoir R1 is emptying
     0:00:00: Tank T8 is filling at 4.01 ft
   
   
  Hydraulic Status:
  -----------------------------------------------------------------------
     0:00:00: Balancing the network:
              Trial  1: relative flow change = 0.707157
              Trial  2: relative flow change = 0.354355
              Trial  3: relative flow change = 0.096927
              Trial  4: relative flow change = 0.006413
              Trial  5: relative flow change = 0.000028
              Trial  6: relative flow change = 0.000000
     0:00:00: Balanced after 6 trials
     0:00:00: Reservoir R1 is emptying
     0:00:00: Tank T8 is filling at 4.00 ft
   
   
  Hydraulic Status:
  -----------------------------------------------------------------------
     0:00:00: Balancing the network:
              Trial  1: relative flow change = 0.713784
              Trial  2: relative flow change = 0.360627
              Trial  3: relative flow change = 0.101399
              Trial  4: relative flow change = 0.006965
              Trial  5: relative flow change = 0.000033
              Trial  6: relative flow change = 0.000000
     0:00:00: Balanced after 6 trials
     0:00:00: Reservoir R1 is emptying
     0:00:00: Tank T8 is filling at 3.98 ft
   
   
  Hydraulic Status:
  -----------------------------------------------------------------------
     0:00:00: Balancing the network:
              Trial  1: relative flow change = 0.712850
              Trial  2: relative flow change = 0.359100
              Trial  3: relative flow change = 0.100916
              Trial  4: relative flow change = 0.006927
              Trial  5: relative flow change = 0.000033
              Trial  6: relative flow change = 0.000000
     0:00:00: Balanced after 6 trials
     0:00:00: Reservoir R1 is emptying
     0:00:00: Tank T8 is filling at 4.00 ft
   
   
  Hydraulic Status:
  -----------------------------------------------------------------------
     0:00:00: Balancing the network:
              Trial  1: relative flow change = 0.709343
              Trial  2: relative flow change = 0.353192
              Trial  3: relative flow change = 0.096418
              Trial  4: relative flow change = 0.006518
              Trial  5: relative flow change = 0.000029
              Trial  6: relative flow change = 0.000000
     0:00:00: Balanced after 6 trials
     0:00:00: Reservoir R1 is emptying
     0:00:00: Tank T8 is filling at 3.98 ft
   
   
  Hydraulic Status:
  -----------------------------------------------------------------------
     0:00:00: Balancing the network:
              Trial  1: relative flow change = 0.715459
              Trial  2: relative flow change = 0.358233
              Trial  3: relative flow change = 0.101798
              Trial  4: relative flow change = 0.007392
              Trial  5: relative flow change = 0.000038
              Trial  6: relative flow change = 0.000000
     0:00:00: Balanced after 6 trials
     0:00:00: Reservoir R1 is emptying
     0:00:00: Tank T8 is filling at 4.00 ft
   
   
  Hydraulic Status:
  -----------------------------------------------------------------------
     0:00:00: Balancing the network:
              Trial  1: relative flow change = 0.711907
              Trial  2: relative flow change = 0.356737
              Trial  3: relative flow change = 0.098858
              Trial  4: relative flow change = 0.006920
              Trial  5: relative flow change = 0.000033
              Trial  6: relative flow change = 0.000000
     0:00:00: Balanced after 6 trials
     0:00:00: Reservoir R1 is emptying
     0:00:00: Tank T8 is filling at 4.00 ft
   
   
  Hydraulic Status:
  -----------------------------------------------------------------------
     0:00:00: Balancing the network:
              Trial  1: relative flow change = 0.713698
              Trial  2: relative flow change = 0.360857
              Trial  3: relative flow change = 0.101468
              Trial  4: relative flow change = 0.007095
              Trial  5: relative flow change = 0.000035
              Trial  6: relative flow change = 0.000000
     0:00:00: Balanced after 6 trials
     0:00:00: Reservoir R1 is emptying
     0:00:00: Tank T8 is filling at 4.02 ft
   
   
  Hydraulic Status:
  -----------------------------------------------------------------------
     0:00:00: Balancing the network:
              Trial  1: relative flow change = 0.717161
              Trial  2: relative flow change = 0.363745
              Trial  3: relative flow change = 0.103455
              Trial  4: relative flow change = 0.007414
              Trial  5: relative flow change = 0.000038
              Trial  6: relative flow change = 0.000000
     0:00:00: Balanced after 6 trials
     0:00:00: Reservoir R1 is emptying
     0:00:00: Tank T8 is filling at 3.98 ft
   
   
  Hydraulic Status:
  -----------------------------------------------------------------------
     0:00:00: Balancing the network:
              Trial  1: relative flow change = 0.708004
              Trial  2: relative flow change = 0.355759
              Trial  3: relative flow change = 0.097193
              Trial  4: relative flow change = 0.006465
              Trial  5: relative flow change = 0.000029
              Trial  6: relative flow change = 0.000000
     0:00:00: Balanced after 6 trials
     0:00:00: Reservoir R1 is emptying
     0:00:00: Tank T8 is filling at 4.01 ft
   
   
  Hydraulic Status:
  -----------------------------------------------------------------------
     0:00:00: Balancing the network:
              Trial  1: relative flow change = 0.717531
              Trial  2: relative flow change = 0.363485
              Trial  3: relative flow change = 0.103981
              Trial  4: relative flow change = 0.007491
              Trial  5: relative flow change = 0.000039
              Trial  6: relative flow change = 0.000000
     0:00:00: Balanced after 6 trials
     0:00:00: Reservoir R1 is emptying
     0:00:00: Tank T8 is filling at 4.03 ft
   
   
  Hydraulic Status:
  -----------------------------------------------------------------------
     0:00:00: Balancing the network:
              Trial  1: relative flow change = 0.716473
              Trial  2: relative flow change = 0.365462
              Trial  3: relative flow change = 0.104988
              Trial  4: relative flow change = 0.007444
              Trial  5: relative flow change = 0.000038
              Trial  6: relative flow change = 0.000000
     0:00:00: Balanced after 6 trials
     0:00:00: Reservoir R1 is emptying
     0:00:00: Tank T8 is filling at 4.01 ft
   
   
  Hydraulic Status:
  -----------------------------------------------------------------------
     0:00:00: Balancing the network:
              Trial  1: relative flow change = 0.720078
              Trial  2: relative flow change = 0.367941
              Trial  3: relative flow change = 0.107054
              Trial  4: relative flow change = 0.007994
              Trial  5: relative flow change = 0.000045
              Trial  6: relative flow change = 0.000000
     0:00:00: Balanced after 6 trials
     0:00:00: Reservoir R1 is emptying
     0:00:00: Tank T8 is filling at 3.99 ft
   
   
  Hydraulic Status:
  -----------------------------------------------------------------------
     0:00:00: Balancing the network:
              Trial  1: relative flow change = 0.713706
              Trial  2: relative flow change = 0.362176
              Trial  3: relative flow change = 0.102486
              Trial  4: relative flow change = 0.007412
              Trial  5: relative flow change = 0.000038
              Trial  6: relative flow change = 0.000000
     0:00:00: Balanced after 6 trials
     0:00:00: Reservoir R1 is emptying
     0:00:00: Tank T8 is filling at 4.01 ft
   
   
  Hydraulic Status:
  -----------------------------------------------------------------------
     0:00:00: Balancing the network:
              Trial  1: relative flow change = 0.716372
              Trial  2: relative flow change = 0.364167
              Trial  3: relative flow change = 0.104223
              Trial  4: relative flow change = 0.007529
              Trial  5: relative flow change = 0.000039
              Trial  6: relative flow change = 0.000000
     0:00:00: Balanced after 6 trials
     0:00:00: Reservoir R1 is emptying
     0:00:00: Tank T8 is filling at 4.00 ft
   
   
  Hydraulic Status:
  -----------------------------------------------------------------------
     0:00:00: Balancing the network:
              Trial  1: relative flow change = 0.714766
              Trial  2: relative flow change = 0.361405
              Trial  3: relative flow change = 0.102150
              Trial  4: relative flow change = 0.007157
              Trial  5: relative flow change = 0.000035
              Trial  6: relative flow change = 0.000000
     0:00:00: Balanced after 6 trials
     0:00:00: Reservoir R1 is emptying
     0:00:00: Tank T8 is filling at 4.00 ft
   
   
  Hydraulic Status:
  -----------------------------------------------------------------------
     0:00:00: Balancing the network:
              Trial  1: relative flow change = 0.716286
              Trial  2: relative flow change = 0.363861
              Trial  3: relative flow change = 0.102635
              Trial  4: relative flow change = 0.007531
              Trial  5: relative flow change = 0.000040
              Trial  6: relative flow change = 0.000000
     0:00:00: Balanced after 6 trials
     0:00:00: Reservoir R1 is emptying
     0:00:00: Tank T8 is filling at 4.01 ft
   
   
  Hydraulic Status:
  -----------------------------------------------------------------------
     0:00:00: Balancing the network:
              Trial  1: relative flow change = 0.712963
              Trial  2: relative flow change = 0.355074
              Trial  3: relative flow change = 0.099809
              Trial  4: relative flow change = 0.007057
              Trial  5: relative flow change = 0.000034
              Trial  6: relative flow change = 0.000000
     0:00:00: Balanced after 6 trials
     0:00:00: Reservoir R1 is emptying
     0:00:00: Tank T8 is filling at 3.99 ft
   
   
  Hydraulic Status:
  -----------------------------------------------------------------------
     0:00:00: Balancing the network:
              Trial  1: relative flow change = 0.717114
              Trial  2: relative flow change = 0.364575
              Trial  3: relative flow change = 0.104995
              Trial  4: relative flow change = 0.007684
              Trial  5: relative flow change = 0.000041
              Trial  6: relative flow change = 0.000000
     0:00:00: Balanced after 6 trials
     0:00:00: Reservoir R1 is emptying
     0:00:00: Tank T8 is filling at 4.02 ft
   
   
  Hydraulic Status:
  -----------------------------------------------------------------------
     0:00:00: Balancing the network:
              Trial  1: relative flow change = 0.718028
              Trial  2: relative flow change = 0.365021
              Trial  3: relative flow change = 0.105599
              Trial  4: relative flow change = 0.007576
              Trial  5: relative flow change = 0.000039
              Trial  6: relative flow change = 0.000000
     0:00:00: Balanced after 6 trials
     0:00:00: Reservoir R1 is emptying
     0:00:00: Tank T8 is filling at 3.99 ft
   
   
  Hydraulic Status:
  -----------------------------------------------------------------------
     0:00:00: Balancing the network:
              Trial  1: relative flow change = 0.712370
              Trial  2: relative flow change = 0.363768
              Trial  3: relative flow change = 0.102863
              Trial  4: relative flow change = 0.007116
              Trial  5: relative flow change = 0.000034
              Trial  6: relative flow change = 0.000000
     0:00:00: Balanced after 6 trials
     0:00:00: Reservoir R1 is emptying
     0:00:00: Tank T8 is filling at 4.02 ft
   
   
  Hydraulic Status:
  -----------------------------------------------------------------------
     0:00:00: Balancing the network:
              Trial  1: relative flow change = 0.712465
              Trial  2: relative flow change = 0.365081
              Trial  3: relative flow change = 0.103524
              Trial  4: relative flow change = 0.007309
              Trial  5: relative flow change = 0.000037
              Trial  6: relative flow change = 0.000000
     0:00:00: Balanced after 6 trials
     0:00:00: Reservoir R1 is emptying
     0:00:00: Tank T8 is filling at 3.98 ft
   
   
  Hydraulic Status:
  -----------------------------------------------------------------------
     0:00:00: Balancing the network:
              Trial  1: relative flow change = 0.705324
              Trial  2: relative flow change = 0.348477
              Trial  3: relative flow change = 0.096183
              Trial  4: relative flow change = 0.006430
              Trial  5: relative flow change = 0.000029
              Trial  6: relative flow change = 0.000000
     0:00:00: Balanced after 6 trials
     0:00:00: Reservoir R1 is emptying
     0:00:00: Tank T8 is filling at 4.01 ft
   
   
  Hydraulic Status:
  -----------------------------------------------------------------------
     0:00:00: Balancing the network:
              Trial  1: relative flow change = 0.714762
              Trial  2: relative flow change = 0.360030
              Trial  3: relative flow change = 0.101681
              Trial  4: relative flow change = 0.007014
              Trial  5: relative flow change = 0.000034
              Trial  6: relative flow change = 0.000000
     0:00:00: Balanced after 6 trials
     0:00:00: Reservoir R1 is emptying
     0:00:00: Tank T8 is filling at 4.01 ft
   
   
  Hydraulic Status:
  -----------------------------------------------------------------------
     0:00:00: Balancing the network:
              Trial  1: relative flow change = 0.715995
              Trial  2: relative flow change = 0.356738
              Trial  3: relative flow change = 0.100170
              Trial  4: relative flow change = 0.007123
              Trial  5: relative flow change = 0.000036
              Trial  6: relative flow change = 0.000000
     0:00:00: Balanced after 6 trials
     0:00:00: Reservoir R1 is emptying
     0:00:00: Tank T8 is filling at 3.98 ft
   
   
  Hydraulic Status:
  -----------------------------------------------------------------------
     0:00:00: Balancing the network:
              Trial  1: relative flow change = 0.716056
              Trial  2: relative flow change = 0.363075
              Trial  3: relative flow change = 0.104149
              Trial  4: relative flow change = 0.007614
              Trial  5: relative flow change = 0.000040
              Trial  6: relative flow change = 0.000000
     0:00:00: Balanced after 6 trials
     0:00:00: Reservoir R1 is emptying
     0:00:00: Tank T8 is filling at 3.99 ft
   
   
  Hydraulic Status:
  -----------------------------------------------------------------------
     0:00:00: Balancing the network:
              Trial  1: relative flow change = 0.708251
              Trial  2: relative flow change = 0.353931
              Trial  3: relative flow change = 0.100586
              Trial  4: relative flow change = 0.006933
              Trial  5: relative flow change = 0.000033
              Trial  6: relative flow change = 0.000000
     0:00:00: Balanced after 6 trials
     0:00:00: Reservoir R1 is emptying
     0:00:00: Tank T8 is filling at 4.00 ft
   
   
  Hydraulic Status:
  -----------------------------------------------------------------------
     0:00:00: Balancing the network:
              Trial  1: relative flow change = 0.717648
              Trial  2: relative flow change = 0.363507
              Trial  3: relative flow change = 0.103481
              Trial  4: relative flow change = 0.007456
              Trial  5: relative flow change = 0.000039
              Trial  6: relative flow change = 0.000000
     0:00:00: Balanced after 6 trials
     0:00:00: Reservoir R1 is emptying
     0:00:00: Tank T8 is filling at 3.99 ft
   
   
  Hydraulic Status:
  -----------------------------------------------------------------------
     0:00:00: Balancing the network:
              Trial  1: relative flow change = 0.716055
[...]
     0:00:00: Balancing the network:
              Trial  1: relative flow change = 0.713651
              Trial  2: relative flow change = 0.357026
              Trial  3: relative flow change = 0.099882
              Trial  4: relative flow change = 0.006989
              Trial  5: relative flow change = 0.000034
              Trial  6: relative flow change = 0.000000
     0:00:00: Balanced after 6 trials
     0:00:00: Reservoir R1 is emptying
     0:00:00: Tank T8 is filling at 4.02 ft
   
   
  Hydraulic Status:
  -----------------------------------------------------------------------
     0:00:00: Balancing the network:
              Trial  1: relative flow change = 0.710379
              Trial  2: relative flow change = 0.352368
              Trial  3: relative flow change = 0.096253
              Trial  4: relative flow change = 0.006581
              Trial  5: relative flow change = 0.000030
              Trial  6: relative flow change = 0.000000
     0:00:00: Balanced after 6 trials
     0:00:00: Reservoir R1 is emptying
     0:00:00: Tank T8 is filling at 4.00 ft
   
   
  Hydraulic Status:
  -----------------------------------------------------------------------
     0:00:00: Balancing the network:
              Trial  1: relative flow change = 0.712870
              Trial  2: relative flow change = 0.361576
              Trial  3: relative flow change = 0.102753
              Trial  4: relative flow change = 0.007431
              Trial  5: relative flow change = 0.000038
              Trial  6: relative flow change = 0.000000
     0:00:00: Balanced after 6 trials
     0:00:00: Reservoir R1 is emptying
     0:00:00: Tank T8 is filling at 4.01 ft
   
   
  Hydraulic Status:
  -----------------------------------------------------------------------
     0:00:00: Balancing the network:
              Trial  1: relative flow change = 0.714155
              Trial  2: relative flow change = 0.358909
              Trial  3: relative flow change = 0.101065
              Trial  4: relative flow change = 0.007006
              Trial  5: relative flow change = 0.000034
              Trial  6: relative flow change = 0.000000
     0:00:00: Balanced after 6 trials
     0:00:00: Reservoir R1 is emptying
     0:00:00: Tank T8 is filling at 3.98 ft
   
   
  Hydraulic Status:
  -----------------------------------------------------------------------
     0:00:00: Balancing the network:
              Trial  1: relative flow change = 0.711218
              Trial  2: relative flow change = 0.358853
              Trial  3: relative flow change = 0.099575
              Trial  4: relative flow change = 0.006949
              Trial  5: relative flow change = 0.000034
              Trial  6: relative flow change = 0.000000
     0:00:00: Balanced after 6 trials
     0:00:00: Reservoir R1 is emptying
     0:00:00: Tank T8 is filling at 3.98 ft
   
   
  Hydraulic Status:
  -----------------------------------------------------------------------
     0:00:00: Balancing the network:
              Trial  1: relative flow change = 0.717263
              Trial  2: relative flow change = 0.364441
              Trial  3: relative flow change = 0.104105
              Trial  4: relative flow change = 0.007413
              Trial  5: relative flow change = 0.000038
              Trial  6: relative flow change = 0.000000
     0:00:00: Balanced after 6 trials
     0:00:00: Reservoir R1 is emptying
     0:00:00: Tank T8 is filling at 4.00 ft
   
   
  Hydraulic Status:
  -----------------------------------------------------------------------
     0:00:00: Balancing the network:
              Trial  1: relative flow change = 0.706389
              Trial  2: relative flow change = 0.350989
              Trial  3: relative flow change = 0.094058
              Trial  4: relative flow change = 0.006069
              Trial  5: relative flow change = 0.000026
              Trial  6: relative flow change = 0.000000
     0:00:00: Balanced after 6 trials
     0:00:00: Reservoir R1 is emptying
     0:00:00: Tank T8 is filling at 3.97 ft
   
   
  Hydraulic Status:
  -----------------------------------------------------------------------
     0:00:00: Balancing the network:
              Trial  1: relative flow change = 0.711575
              Trial  2: relative flow change = 0.353401
              Trial  3: relative flow change = 0.096532
              Trial  4: relative flow change = 0.006452
              Trial  5: relative flow change = 0.000029
              Trial  6: relative flow change = 0.000000
     0:00:00: Balanced after 6 trials
     0:00:00: Reservoir R1 is emptying
     0:00:00: Tank T8 is filling at 3.99 ft
   
   
  Hydraulic Status:
  -----------------------------------------------------------------------
     0:00:00: Balancing the network:
              Trial  1: relative flow change = 0.719523
              Trial  2: relative flow change = 0.364933
              Trial  3: relative flow change = 0.105861
              Trial  4: relative flow change = 0.007901
              Trial  5: relative flow change = 0.000044
              Trial  6: relative flow change = 0.000000
     0:00:00: Balanced after 6 trials
     0:00:00: Reservoir R1 is emptying
     0:00:00: Tank T8 is filling at 4.02 ft
   
   
  Hydraulic Status:
  -----------------------------------------------------------------------
     0:00:00: Balancing the network:
              Trial  1: relative flow change = 0.712770
              Trial  2: relative flow change = 0.360441
              Trial  3: relative flow change = 0.100460
              Trial  4: relative flow change = 0.007078
              Trial  5: relative flow change = 0.000035
              Trial  6: relative flow change = 0.000000
     0:00:00: Balanced after 6 trials
     0:00:00: Reservoir R1 is emptying
     0:00:00: Tank T8 is filling at 3.99 ft
   
   
  Hydraulic Status:
  -----------------------------------------------------------------------
     0:00:00: Balancing the network:
              Trial  1: relative flow change = 0.709953
              Trial  2: relative flow change = 0.357791
              Trial  3: relative flow change = 0.099430
              Trial  4: relative flow change = 0.006880
              Trial  5: relative flow change = 0.000033
              Trial  6: relative flow change = 0.000000
     0:00:00: Balanced after 6 trials
     0:00:00: Reservoir R1 is emptying
     0:00:00: Tank T8 is filling at 3.99 ft
   
   
  Hydraulic Status:
  -----------------------------------------------------------------------
     0:00:00: Balancing the network:
              Trial  1: relative flow change = 0.712596
              Trial  2: relative flow change = 0.359520
              Trial  3: relative flow change = 0.101187
              Trial  4: relative flow change = 0.007280
              Trial  5: relative flow change = 0.000037
              Trial  6: relative flow change = 0.000000
     0:00:00: Balanced after 6 trials
     0:00:00: Reservoir R1 is emptying
     0:00:00: Tank T8 is filling at 3.99 ft
   
   
  Hydraulic Status:
  -----------------------------------------------------------------------
     0:00:00: Balancing the network:
              Trial  1: relative flow change = 0.713970
              Trial  2: relative flow change = 0.359290
              Trial  3: relative flow change = 0.101153
              Trial  4: relative flow change = 0.007127
              Trial  5: relative flow change = 0.000035
              Trial  6: relative flow change = 0.000000
     0:00:00: Balanced after 6 trials
     0:00:00: Reservoir R1 is emptying
     0:00:00: Tank T8 is filling at 4.01 ft
   
   
  Hydraulic Status:
  -----------------------------------------------------------------------
     0:00:00: Balancing the network:
              Trial  1: relative flow change = 0.711021
              Trial  2: relative flow change = 0.357451
              Trial  3: relative flow change = 0.099108
              Trial  4: relative flow change = 0.006705
              Trial  5: relative flow change = 0.000031
              Trial  6: relative flow change = 0.000000
     0:00:00: Balanced after 6 trials
     0:00:00: Reservoir R1 is emptying
     0:00:00: Tank T8 is filling at 4.02 ft
   
   
  Hydraulic Status:
  -----------------------------------------------------------------------
     0:00:00: Balancing the network:
              Trial  1: relative flow change = 0.717775
              Trial  2: relative flow change = 0.367702
              Trial  3: relative flow change = 0.106242
              Trial  4: relative flow change = 0.007666
              Trial  5: relative flow change = 0.000040
              Trial  6: relative flow change = 0.000000
     0:00:00: Balanced after 6 trials
     0:00:00: Reservoir R1 is emptying
     0:00:00: Tank T8 is filling at 3.98 ft
   
   
  Hydraulic Status:
  -----------------------------------------------------------------------
     0:00:00: Balancing the network:
              Trial  1: relative flow change = 0.715252
              Trial  2: relative flow change = 0.360345
              Trial  3: relative flow change = 0.102329
              Trial  4: relative flow change = 0.007348
              Trial  5: relative flow change = 0.000038
              Trial  6: relative flow change = 0.000000
     0:00:00: Balanced after 6 trials
     0:00:00: Reservoir R1 is emptying
     0:00:00: Tank T8 is filling at 4.00 ft
   
   
  Hydraulic Status:
  -----------------------------------------------------------------------
     0:00:00: Balancing the network:
              Trial  1: relative flow change = 0.709624
              Trial  2: relative flow change = 0.354394
              Trial  3: relative flow change = 0.099204
              Trial  4: relative flow change = 0.006822
              Trial  5: relative flow change = 0.000032
              Trial  6: relative flow change = 0.000000
     0:00:00: Balanced after 6 trials
     0:00:00: Reservoir R1 is emptying
     0:00:00: Tank T8 is filling at 3.98 ft
   
   
  Hydraulic Status:
  -----------------------------------------------------------------------
     0:00:00: Balancing the network:
              Trial  1: relative flow change = 0.712126
              Trial  2: relative flow change = 0.357864
              Trial  3: relative flow change = 0.099492
              Trial  4: relative flow change = 0.006882
              Trial  5: relative flow change = 0.000033
              Trial  6: relative flow change = 0.000000
     0:00:00: Balanced after 6 trials
     0:00:00: Reservoir R1 is emptying
     0:00:00: Tank T8 is filling at 4.00 ft
   
   
  Hydraulic Status:
  -----------------------------------------------------------------------
     0:00:00: Balancing the network:
              Trial  1: relative flow change = 0.712760
              Trial  2: relative flow change = 0.357504
              Trial  3: relative flow change = 0.099310
              Trial  4: relative flow change = 0.006862
              Trial  5: relative flow change = 0.000033
              Trial  6: relative flow change = 0.000000
     0:00:00: Balanced after 6 trials
     0:00:00: Reservoir R1 is emptying
     0:00:00: Tank T8 is filling at 4.01 ft
   
   
  Hydraulic Status:
  -----------------------------------------------------------------------
     0:00:00: Balancing the network:
              Trial  1: relative flow change = 0.716492
              Trial  2: relative flow change = 0.362391
              Trial  3: relative flow change = 0.102499
              Trial  4: relative flow change = 0.007132
              Trial  5: relative flow change = 0.000035
              Trial  6: relative flow change = 0.000000
     0:00:00: Balanced after 6 trials
     0:00:00: Reservoir R1 is emptying
     0:00:00: Tank T8 is filling at 3.99 ft
   
   
  Hydraulic Status:
  -----------------------------------------------------------------------
     0:00:00: Balancing the network:
              Trial  1: relative flow change = 0.714913
              Trial  2: relative flow change = 0.357019
              Trial  3: relative flow change = 0.100055
              Trial  4: relative flow change = 0.006886
              Trial  5: relative flow change = 0.000033
              Trial  6: relative flow change = 0.000000
     0:00:00: Balanced after 6 trials
     0:00:00: Reservoir R1 is emptying
     0:00:00: Tank T8 is filling at 3.99 ft
   
   
  Hydraulic Status:
  -----------------------------------------------------------------------
     0:00:00: Balancing the network:
              Trial  1: relative flow change = 0.715813
              Trial  2: relative flow change = 0.360177
              Trial  3: relative flow change = 0.102563
              Trial  4: relative flow change = 0.007471
              Trial  5: relative flow change = 0.000039
              Trial  6: relative flow change = 0.000000
     0:00:00: Balanced after 6 trials
     0:00:00: Reservoir R1 is emptying
     0:00:00: Tank T8 is filling at 4.00 ft
   
   
  Hydraulic Status:
  -----------------------------------------------------------------------
     0:00:00: Balancing the network:
              Trial  1: relative flow change = 0.716911
              Trial  2: relative flow change = 0.361599
              Trial  3: relative flow change = 0.101469
              Trial  4: relative flow change = 0.007177
              Trial  5: relative flow change = 0.000036
              Trial  6: relative flow change = 0.000000
     0:00:00: Balanced after 6 trials
     0:00:00: Reservoir R1 is emptying
     0:00:00: Tank T8 is filling at 3.99 ft
   
   
  Hydraulic Status:
  -----------------------------------------------------------------------
     0:00:00: Balancing the network:
              Trial  1: relative flow change = 0.708561
              Trial  2: relative flow change = 0.358515
              Trial  3: relative flow change = 0.098875
              Trial  4: relative flow change = 0.006533
              Trial  5: relative flow change = 0.000029
              Trial  6: relative flow change = 0.000000
     0:00:00: Balanced after 6 trials
     0:00:00: Reservoir R1 is emptying
     0:00:00: Tank T8 is filling at 4.00 ft
   
   
  Hydraulic Status:
  -----------------------------------------------------------------------
     0:00:00: Balancing the network:
              Trial  1: relative flow change = 0.710277
              Trial  2: relative flow change = 0.355791
              Trial  3: relative flow change = 0.097946
              Trial  4: relative flow change = 0.006652
              Trial  5: relative flow change = 0.000031
              Trial  6: relative flow change = 0.000000
     0:00:00: Balanced after 6 trials
     0:00:00: Reservoir R1 is emptying
     0:00:00: Tank T8 is filling at 4.00 ft
   
   
  Hydraulic Status:
  -----------------------------------------------------------------------
     0:00:00: Balancing the network:
              Trial  1: relative flow change = 0.711257
              Trial  2: relative flow change = 0.355647
              Trial  3: relative flow change = 0.099476
              Trial  4: relative flow change = 0.006930
              Trial  5: relative flow change = 0.000034
              Trial  6: relative flow change = 0.000000
     0:00:00: Balanced after 6 trials
     0:00:00: Reservoir R1 is emptying
     0:00:00: Tank T8 is filling at 4.00 ft
   
   
  Hydraulic Status:
  -----------------------------------------------------------------------
     0:00:00: Balancing the network:
              Trial  1: relative flow change = 0.714930
              Trial  2: relative flow change = 0.363273
              Trial  3: relative flow change = 0.102812
              Trial  4: relative flow change = 0.007250
              Trial  5: relative flow change = 0.000036
              Trial  6: relative flow change = 0.000000
     0:00:00: Balanced after 6 trials
     0:00:00: Reservoir R1 is emptying
     0:00:00: Tank T8 is filling at 4.00 ft
   
   
  Hydraulic Status:
  -----------------------------------------------------------------------
     0:00:00: Balancing the network:
              Trial  1: relative flow change = 0.711374
              Trial  2: relative flow change = 0.359201
              Trial  3: relative flow change = 0.099845
              Trial  4: relative flow change = 0.006949
              Trial  5: relative flow change = 0.000034
              Trial  6: relative flow change = 0.000000
     0:00:00: Balanced after 6 trials
     0:00:00: Reservoir R1 is emptying
     0:00:00: Tank T8 is filling at 3.99 ft
   
   
  Hydraulic Status:
  -----------------------------------------------------------------------
     0:00:00: Balancing the network:
              Trial  1: relative flow change = 0.713284
              Trial  2: relative flow change = 0.358174
              Trial  3: relative flow change = 0.100081
              Trial  4: relative flow change = 0.006931
              Trial  5: relative flow change = 0.000033
              Trial  6: relative flow change = 0.000000
     0:00:00: Balanced after 6 trials
     0:00:00: Reservoir R1 is emptying
     0:00:00: Tank T8 is filling at 3.97 ft
   
   
  Hydraulic Status:
  -----------------------------------------------------------------------
     0:00:00: Balancing the network:
              Trial  1: relative flow change = 0.709307
              Trial  2: relative flow change = 0.354520
              Trial  3: relative flow change = 0.096671
              Trial  4: relative flow change = 0.006357
              Trial  5: relative flow change = 0.000028
              Trial  6: relative flow change = 0.000000
     0:00:00: Balanced after 6 trials
     0:00:00: Reservoir R1 is emptying
     0:00:00: Tank T8 is filling at 4.02 ft
   
   
  Hydraulic Status:
  -----------------------------------------------------------------------
     0:00:00: Balancing the network:
              Trial  1: relative flow change = 0.714679
              Trial  2: relative flow change = 0.364521
              Trial  3: relative flow change = 0.104517
              Trial  4: relative flow change = 0.007500
              Trial  5: relative flow change = 0.000039
              Trial  6: relative flow change = 0.000000
     0:00:00: Balanced after 6 trials
     0:00:00: Reservoir R1 is emptying
     0:00:00: Tank T8 is filling at 4.01 ft
   
   
  Hydraulic Status:
  -----------------------------------------------------------------------
     0:00:00: Balancing the network:
              Trial  1: relative flow change = 0.713469
              Trial  2: relative flow change = 0.356111
              Trial  3: relative flow change = 0.099400
              Trial  4: relative flow change = 0.007070
              Trial  5: relative flow change = 0.000035
              Trial  6: relative flow change = 0.000000
     0:00:00: Balanced after 6 trials
     0:00:00: Reservoir R1 is emptying
     0:00:00: Tank T8 is filling at 4.00 ft
   
   
  Hydraulic Status:
  -----------------------------------------------------------------------
     0:00:00: Balancing the network:
              Trial  1: relative flow change = 0.713506
              Trial  2: relative flow change = 0.360800
              Trial  3: relative flow change = 0.102575
              Trial  4: relative flow change = 0.007405
              Trial  5: relative flow change = 0.000038
              Trial  6: relative flow change = 0.000000
     0:00:00: Balanced after 6 trials
     0:00:00: Reservoir R1 is emptying
     0:00:00: Tank T8 is filling at 4.00 ft
   
   
  Hydraulic Status:
  -----------------------------------------------------------------------
     0:00:00: Balancing the network:
              Trial  1: relative flow change = 0.712514
              Trial  2: relative flow change = 0.354972
              Trial  3: relative flow change = 0.104031
              Trial  4: relative flow change = 0.007298
           