  Page 1                                    Sun Aug 18 19:38:32 2019

  ******************************************************************
  *                           E P A N E T                          *
  *                   Hydraulic and Water Quality                  *
  *                   Analysis for Pipe Networks                   *
  *                         Version 2.1                            *
  ******************************************************************
  
  Analysis begun Sun Aug 18 19:38:32 2019

   
  Hydraulic Status:
  -----------------------------------------------------------------------
     0:00:00: Balancing the network:
              Trial  1: relative flow change = 0.826477
              PRV 2 switched from active to open
              Trial  2: relative flow change = 0.618658
              PRV 2 switched from open to active
              FCV 1 switched from active to open
              Trial  3: relative flow change = 0.309398
              Trial  4: relative flow change = 0.068244
              FCV 1 switched from open to active
              Trial  5: relative flow change = 0.274903
              Trial  6: relative flow change = 0.026002
              Trial  7: relative flow change = 0.000288
              Trial  8: relative flow change = 0.000000
     0:00:00: Balanced after 8 trials
     0:00:00: Reservoir R1 is emptying
     0:00:00: Tank T8 is filling at 10.00 ft
   
   
  Hydraulic Status:
  -----------------------------------------------------------------------
     0:00:00: Balancing the network:
              Trial  1: relative flow change = 0.829611
              PRV 2 switched from active to open
              Trial  2: relative flow change = 0.631594
              PRV 2 switched from open to active
              FCV 1 switched from active to open
              Trial  3: relative flow change = 0.310239
              Trial  4: relative flow change = 0.075219
              FCV 1 switched from open to active
              Trial  5: relative flow change = 0.282458
              Trial  6: relative flow change = 0.028811
              Trial  7: relative flow change = 0.000951
              Trial  8: relative flow change = 0.000001
     0:00:00: Balanced after 8 trials
     0:00:00: Reservoir R1 is emptying
     0:00:00: Tank T8 is filling at 10.03 ft
   
   
  Hydraulic Status:
  -----------------------------------------------------------------------
     0:00:00: Balancing the network:
              Trial  1: relative flow change = 0.824361
              PRV 2 switched from active to open
              Trial  2: relative flow change = 0.618258
              PRV 2 switched from open to active
              FCV 1 switched from active to open
              Trial  3: relative flow change = 0.308304
              Trial  4: relative flow change = 0.063012
              FCV 1 switched from open to active
              Trial  5: relative flow change = 0.270659
              Trial  6: relative flow change = 0.025041
              Trial  7: relative flow change = 0.000593
              Trial  8: relative flow change = 0.000000
     0:00:00: Balanced after 8 trials
     0:00:00: Reservoir R1 is emptying
     0:00:00: Tank T8 is filling at 10.08 ft
   
   
  Hydraulic Status:
  -----------------------------------------------------------------------
     0:00:00: Balancing the network:
              Trial  1: relative flow change = 0.826361
              PRV 2 switched from active to open
              Trial  2: relative flow change = 0.630234
              PRV 2 switched from open to active
              FCV 1 switched from active to open
              Trial  3: relative flow change = 0.311228
              Trial  4: relative flow change = 0.057628
              FCV 1 switched from open to active
              Trial  5: relative flow change = 0.266737
              Trial  6: relative flow change = 0.025843
              Trial  7: relative flow change = 0.001664
              Trial  8: relative flow change = 0.000004
     0:00:00: Balanced after 8 trials
     0:00:00: Reservoir R1 is emptying
     0:00:00: Tank T8 is filling at 9.97 ft
   
   
  Hydraulic Status:
  -----------------------------------------------------------------------
     0:00:00: Balancing the network:
              Trial  1: relative flow change = 0.826909
              PRV 2 switched from active to open
              Trial  2: relative flow change = 0.616430
              PRV 2 switched from open to active
              FCV 1 switched from active to open
              Trial  3: relative flow change = 0.307408
              Trial  4: relative flow change = 0.065005
              FCV 1 switched from open to active
              Trial  5: relative flow change = 0.266520
              Trial  6: relative flow change = 0.024555
              Trial  7: relative flow change = 0.000490
              Trial  8: relative flow change = 0.000000
     0:00:00: Balanced after 8 trials
     0:00:00: Reservoir R1 is emptying
     0:00:00: Tank T8 is filling at 10.00 ft
   
   
  Hydraulic Status:
  -----------------------------------------------------------------------
     0:00:00: Balancing the network:
              Trial  1: relative flow change = 0.828187
              PRV 2 switched from active to open
              Trial  2: relative flow change = 0.626948
              PRV 2 switched from open to active
              FCV 1 switched from active to open
              Trial  3: relative flow change = 0.309338
              Trial  4: relative flow change = 0.069163
              FCV 1 switched from open to active
              Trial  5: relative flow change = 0.276010
              Trial  6: relative flow change = 0.026854
              Trial  7: relative flow change = 0.000390
              Trial  8: relative flow change = 0.000000
     0:00:00: Balanced after 8 trials
     0:00:00: Reservoir R1 is emptying
     0:00:00: Tank T8 is filling at 9.97 ft
   
   
  Hydraulic Status:
  -----------------------------------------------------------------------
     0:00:00: Balancing the network:
              Trial  1: relative flow change = 0.825229
              PRV 2 switched from active to open
              Trial  2: relative flow change = 0.622848
              PRV 2 switched from open to active
              FCV 1 switched from active to open
              Trial  3: relative flow change = 0.311687
              Trial  4: relative flow change = 0.062313
              FCV 1 switched from open to active
              Trial  5: relative flow change = 0.273127
              Trial  6: relative flow change = 0.027931
              Trial  7: relative flow change = 0.001728
              Trial  8: relative flow change = 0.000004
     0:00:00: Balanced after 8 trials
     0:00:00: Reservoir R1 is emptying
     0:00:00: Tank T8 is filling at 10.04 ft
   
   
  Hydraulic Status:
  -----------------------------------------------------------------------
     0:00:00: Balancing the network:
              Trial  1: relative flow change = 0.824523
              PRV 2 switched from active to open
              Trial  2: relative flow change = 0.616896
              PRV 2 switched from open to active
              FCV 1 switched from active to open
              Trial  3: relative flow change = 0.319325
              Trial  4: relative flow change = 0.054179
              FCV 1 switched from open to active
              Trial  5: relative flow change = 0.274800
              Trial  6: relative flow change = 0.024932
              Trial  7: relative flow change = 0.001188
              Trial  8: relative flow change = 0.000000
     0:00:00: Balanced after 8 trials
     0:00:00: Reservoir R1 is emptying
     0:00:00: Tank T8 is filling at 10.02 ft
   
   
  Hydraulic Status:
  -----------------------------------------------------------------------
     0:00:00: Balancing the network:
              Trial  1: relative flow change = 0.826743
              PRV 2 switched from active to open
              Trial  2: relative flow change = 0.622323
              PRV 2 switched from open to active
              FCV 1 switched from active to open
              Trial  3: relative flow change = 0.306702
              Trial  4: relative flow change = 0.059643
              FCV 1 switched from open to active
              Trial  5: relative flow change = 0.261706
              Trial  6: relative flow change = 0.023414
              Trial  7: relative flow change = 0.000837
              Trial  8: relative flow change = 0.000000
     0:00:00: Balanced after 8 trials
     0:00:00: Reservoir R1 is emptying
     0:00:00: Tank T8 is filling at 10.04 ft
   
   
  Hydraulic Status:
  -----------------------------------------------------------------------
     0:00:00: Balancing the network:
              Trial  1: relative flow change = 0.828744
              PRV 2 switched from active to open
              Trial  2: relative flow change = 0.617882
              PRV 2 switched from open to active
              FCV 1 switched from active to open
              Trial  3: relative flow change = 0.310947
              Trial  4: relative flow change = 0.067626
              FCV 1 switched from open to active
              Trial  5: relative flow change = 0.272086
              Trial  6: relative flow change = 0.025114
              Trial  7: relative flow change = 0.000572
              Trial  8: relative flow change = 0.000000
     0:00:00: Balanced after 8 trials
     0:00:00: Reservoir R1 is emptying
     0:00:00: Tank T8 is filling at 9.99 ft
   
   
  Hydraulic Status:
  -----------------------------------------------------------------------
     0:00:00: Balancing the network:
              Trial  1: relative flow change = 0.827154
              PRV 2 switched from active to open
              Trial  2: relative flow change = 0.613724
              PRV 2 switched from open to active
              FCV 1 switched from active to open
              Trial  3: relative flow change = 0.307957
              Trial  4: relative flow change = 0.072080
              FCV 1 switched from open to active
              Trial  5: relative flow change = 0.270987
              Trial  6: relative flow change = 0.024822
              Trial  7: relative flow change = 0.000498
              Trial  8: relative flow change = 0.000000
     0:00:00: Balanced after 8 trials
     0:00:00: Reservoir R1 is emptying
     0:00:00: Tank T8 is filling at 10.01 ft
   
   
  Hydraulic Status:
  -----------------------------------------------------------------------
     0:00:00: Balancing the network:
              Trial  1: relative flow change = 0.827960
              PRV 2 switched from active to open
              Trial  2: relative flow change = 0.622345
              PRV 2 switched from open to active
              FCV 1 switched from active to open
              Trial  3: relative flow change = 0.310944
              Trial  4: relative flow change = 0.059379
              FCV 1 switched from open to active
              Trial  5: relative flow change = 0.267872
              Trial  6: relative flow change = 0.027371
              Trial  7: relative flow change = 0.000871
              Trial  8: relative flow change = 0.000000
     0:00:00: Balanced after 8 trials
     0:00:00: Reservoir R1 is emptying
     0:00:00: Tank T8 is filling at 9.99 ft
   
   
  Hydraulic Status:
  -----------------------------------------------------------------------
     0:00:00: Balancing the network:
              Trial  1: relative flow change = 0.825320
              PRV 2 switched from active to open
              Trial  2: relative flow change = 0.612686
              PRV 2 switched from open to active
              FCV 1 switched from active to open
              Trial  3: relative flow change = 0.311549
              Trial  4: relative flow change = 0.071343
              FCV 1 switched from open to active
              Trial  5: relative flow change = 0.278864
              Trial  6: relative flow change = 0.024017
              Trial  7: relative flow change = 0.000101
              Trial  8: relative flow change = 0.000000
     0:00:00: Balanced after 8 trials
     0:00:00: Reservoir R1 is emptying
     0:00:00: Tank T8 is filling at 9.96 ft
   
   
  Hydraulic Status:
  -----------------------------------------------------------------------
     0:00:00: Balancing the network:
              Trial  1: relative flow change = 0.826755
              PRV 2 switched from active to open
              Trial  2: relative flow change = 0.619515
              PRV 2 switched from open to active
              FCV 1 switched from active to open
              Trial  3: relative flow change = 0.306237
              Trial  4: relative flow change = 0.068464
              FCV 1 switched from open to active
              Trial  5: relative flow change = 0.274367
              Trial  6: relative flow change = 0.026837
              Trial  7: relative flow change = 0.000847
              Trial  8: relative flow change = 0.000000
     0:00:00: Balanced after 8 trials
     0:00:00: Reservoir R1 is emptying
     0:00:00: Tank T8 is filling at 10.01 ft
   
   
  Hydraulic Status:
  -----------------------------------------------------------------------
     0:00:00: Balancing the network:
              Trial  1: relative flow change = 0.829476
              PRV 2 switched from active to open
              Trial  2: relative flow change = 0.624254
              PRV 2 switched from open to active
              FCV 1 switched from active to open
              Trial  3: relative flow change = 0.308447
              Trial  4: relative flow change = 0.065648
              FCV 1 switched from open to active
              Trial  5: relative flow change = 0.271150
              Trial  6: relative flow change = 0.027784
              Trial  7: relative flow change = 0.001294
              Trial  8: relative flow change = 0.000001
     0:00:00: Balanced after 8 trials
     0:00:00: Reservoir R1 is emptying
     0:00:00: Tank T8 is filling at 10.03 ft
   
   
  Hydraulic Status:
  -----------------------------------------------------------------------
     0:00:00: Balancing the network:
              Trial  1: relative flow change = 0.826586
              PRV 2 switched from active to open
              Trial  2: relative flow change = 0.621975
              PRV 2 switched from open to active
              FCV 1 switched from active to open
              Trial  3: relative flow change = 0.305719
              Trial  4: relative flow change = 0.055358
              FCV 1 switched from open to active
              Trial  5: relative flow change = 0.259826
              Trial  6: relative flow change = 0.024884
              Trial  7: relative flow change = 0.001061
              Trial  8: relative flow change = 0.000000
     0:00:00: Balanced after 8 trials
     0:00:00: Reservoir R1 is emptying
     0:00:00: Tank T8 is filling at 9.97 ft
   
   
  Hydraulic Status:
  -----------------------------------------------------------------------
     0:00:00: Balancing the network:
              Trial  1: relative flow change = 0.826009
              PRV 2 switched from active to open
              Trial  2: relative flow change = 0.608509
              PRV 2 switched from open to active
              FCV 1 switched from active to open
              Trial  3: relative flow change = 0.310377
              Trial  4: relative flow change = 0.068434
              FCV 1 switched from open to active
              Trial  5: relative flow change = 0.276357
              Trial  6: relative flow change = 0.026182
              Trial  7: relative flow change = 0.000154
              Trial  8: relative flow change = 0.000000
     0:00:00: Balanced after 8 trials
     0:00:00: Reservoir R1 is emptying
     0:00:00: Tank T8 is filling at 9.93 ft
   
   
  Hydraulic Status:
  -----------------------------------------------------------------------
     0:00:00: Balancing the network:
              Trial  1: relative flow change = 0.824253
              PRV 2 switched from active to open
              Trial  2: relative flow change = 0.609864
              PRV 2 switched from open to active
              FCV 1 switched from active to open
              Trial  3: relative flow change = 0.308494
              Trial  4: relative flow change = 0.071520
              FCV 1 switched from open to active
              Trial  5: relative flow change = 0.278579
              Trial  6: relative flow change = 0.024303
              Trial  7: relative flow change = 0.000259
              Trial  8: relative flow change = 0.000000
     0:00:00: Balanced after 8 trials
     0:00:00: Reservoir R1 is emptying
     0:00:00: Tank T8 is filling at 9.98 ft
   
   
  Hydraulic Status:
  -----------------------------------------------------------------------
     0:00:00: Balancing the network:
              Trial  1: relative flow change = 0.828977
              PRV 2 switched from active to open
              Trial  2: relative flow change = 0.622654
              PRV 2 switched from open to active
              FCV 1 switched from active to open
              Trial  3: relative flow change = 0.306533
              Trial  4: relative flow change = 0.076627
              FCV 1 switched from open to active
              Trial  5: relative flow change = 0.283442
              Trial  6: relative flow change = 0.030070
              Trial  7: relative flow change = 0.000478
              Trial  8: relative flow change = 0.000000
     0:00:00: Balanced after 8 trials
     0:00:00: Reservoir R1 is emptying
     0:00:00: Tank T8 is filling at 9.92 ft
   
   
  Hydraulic Status:
  -----------------------------------------------------------------------
     0:00:00: Balancing the network:
              Trial  1: relative flow change = 0.826649
              PRV 2 switched from active to open
              Trial  2: relative flow change = 0.618834
              PRV 2 switched from open to active
              FCV 1 switched from active to open
              Trial  3: relative flow change = 0.311269
              Trial  4: relative flow change = 0.065903
              FCV 1 switched from open to active
              Trial  5: relative flow change = 0.274884
              Trial  6: relative flow change = 0.026190
              Trial  7: relative flow change = 0.000262
              Trial  8: relative flow change = 0.000000
     0:00:00: Balanced after 8 trials
     0:00:00: Reservoir R1 is emptying
     0:00:00: Tank T8 is filling at 10.04 ft
   
   
  Hydraulic Status:
  -----------------------------------------------------------------------
     0:00:00: Balancing the network:
              Trial  1: relative flow change = 0.824501
              PRV 2 switched from active to open
              Trial  2: relative flow change = 0.621900
              PRV 2 switched from open to active
              FCV 1 switched from active to open
              Trial  3: relative flow change = 0.309371
              Trial  4: relative flow change = 0.071376
              FCV 1 switched from open to active
              Trial  5: relative flow change = 0.280207
              Trial  6: relative flow change = 0.029168
              Trial  7: relative flow change = 0.001760
              Trial  8: relative flow change = 0.000004
     0:00:00: Balanced after 8 trials
     0:00:00: Reservoir R1 is emptying
     0:00:00: Tank T8 is filling at 10.05 ft
   
   
  Hydraulic Status:
  -----------------------------------------------------------------------
     0:00:00: Balancing the network:
              Trial  1: relative flow change = 0.825143
              PRV 2 switched from active to open
              Trial  2: relative flow change = 0.619406
              PRV 2 switched from open to active
              FCV 1 switched from active to open
              Trial  3: relative flow change = 0.301735
              Trial  4: relative flow change = 0.069156
              FCV 1 switched from open to active
              Trial  5: relative flow change = 0.267190
              Trial  6: relative flow change = 0.022759
              Trial  7: relative flow change = 0.000475
              Trial  8: relative flow change = 0.000000
     0:00:00: Balanced after 8 trials
     0:00:00: Reservoir R1 is emptying
     0:00:00: Tank T8 is filling at 9.97 ft
   
   
  Hydraulic Status:
  -----------------------------------------------------------------------
     0:00:00: Balancing the network:
              Trial  1: relative flow change = 0.828054
              PRV 2 switched from active to open
              Trial  2: relative flow change = 0.611790
              PRV 2 switched from open to active
              FCV 1 switched from active to open
              Trial  3: relative flow change = 0.310980
              Trial  4: relative flow change = 0.071195
              FCV 1 switched from open to active
              Trial  5: relative flow change = 0.279147
              Trial  6: relative flow change = 0.025662
              Trial  7: relative flow change = 0.000510
              Trial  8: relative flow change = 0.000000
     0:00:00: Balanced after 8 trials
     0:00:00: Reservoir R1 is emptying
     0:00:00: Tank T8 is filling at 10.03 ft
   
   
  Hydraulic Status:
  -----------------------------------------------------------------------
     0:00:00: Balancing the network:
              Trial  1: relative flow change = 0.828644
              PRV 2 switched from active to open
              Trial  2: relative flow change = 0.624465
              PRV 2 switched from open to active
              FCV 1 switched from active to open
              Trial  3: relative flow change = 0.310345
              Trial  4: relative flow change = 0.082498
              FCV 1 switched from open to active
              Trial  5: relative flow change = 0.291017
              Trial  6: relative flow change = 0.027051
              Trial  7: relative flow change = 0.000139
              Trial  8: relative flow change = 0.000000
     0:00:00: Balanced after 8 trials
     0:00:00: Reservoir R1 is emptying
     0:00:00: Tank T8 is filling at 10.04 ft
   
   
  Hydraulic Status:
  -----------------------------------------------------------------------
     0:00:00: Balancing the network:
              Trial  1: relative flow change = 0.824568
              PRV 2 switched from active to open
              Trial  2: relative flow change = 0.614627
              PRV 2 switched from open to active
              FCV 1 switched from active to open
              Trial  3: relative flow change = 0.304308
              Trial  4: relative flow change = 0.071395
              FCV 1 switched from open to active
              Trial  5: relative flow change = 0.274333
              Trial  6: relative flow change = 0.026638
              Trial  7: relative flow change = 0.000515
              Trial  8: relative flow change = 0.000000
     0:00:00: Balanced after 8 trials
     0:00:00: Reservoir R1 is emptying
     0:00:00: Tank T8 is filling at 10.05 ft
   
   
  Hydraulic Status:
  -----------------------------------------------------------------------
     0:00:00: Balancing the network:
              Trial  1: relative flow change = 0.828363
              PRV 2 switched from active to open
              Trial  2: relative flow change = 0.622066
              PRV 2 switched from open to active
              FCV 1 switched from active to open
              Trial  3: relative flow change = 0.310724
              Trial  4: relative flow change = 0.052765
              FCV 1 switched from open to active
              Trial  5: relative flow change = 0.256908
              Trial  6: relative flow change = 0.024734
              Trial  7: relative flow change = 0.001078
              Trial  8: relative flow change = 0.000001
     0:00:00: Balanced after 8 trials
     0:00:00: Reservoir R1 is emptying
     0:00:00: Tank T8 is filling at 10.13 ft
   
   
  Hydraulic Status:
  -----------------------------------------------------------------------
     0:00:00: Balancing the network:
              Trial  1: relative flow change = 0.828363
              PRV 2 switched from active to open
              Trial  2: relative flow change = 0.618582
              PRV 2 switched from open to active
              FCV 1 switched from active to open
              Trial  3: relative flow change = 0.312578
              Trial  4: relative flow change = 0.065240
              FCV 1 switched from open to active
              Trial  5: relative flow change = 0.272689
              Trial  6: relative flow change = 0.026448
              Trial  7: relative flow change = 0.000058
              Trial  8: relative flow change = 0.000000
     0:00:00: Balanced after 8 trials
     0:00:00: Reservoir R1 is emptying
     0:00:00: Tank T8 is filling at 9.97 ft
   
   
  Hydraulic Status:
  -----------------------------------------------------------------------
     0:00:00: Balancing the network:
              Trial  1: relative flow change = 0.826473
              PRV 2 switched from active to open
              Trial  2: relative flow change = 0.613267
              PRV 2 switched from open to active
              FCV 1 switched from active to open
              Trial  3: relative flow change = 0.309019
              Trial  4: relative flow change = 0.074402
              FCV 1 switched from open to active
              Trial  5: relative flow change = 0.283016
              Trial  6: relative flow change = 0.027554
              Trial  7: relative flow change = 0.000227
              Trial  8: relative flow change = 0.000000
     0:00:00: Balanced after 8 trials
     0:00:00: Reservoir R1 is emptying
     0:00:00: Tank T8 is filling at 9.98 ft
   
   
  Hydraulic Status:
  -----------------------------------------------------------------------
     0:00:00: Balancing the network:
              Trial  1: relative flow change = 0.825666
              PRV 2 switched from active to open
              Trial  2: relative flow change = 0.613802
              PRV 2 switched from open to active
              FCV 1 switched from active to open
              Trial  3: relative flow change = 0.306606
              Trial  4: relative flow change = 0.071232
              FCV 1 switched from open to active
              Trial  5: relative flow change = 0.271421
              Trial  6: relative flow change = 0.024688
              Trial  7: relative flow change = 0.000177
              Trial  8: relative flow change = 0.000000
     0:00:00: Balanced after 8 trials
     0:00:00: Reservoir R1 is emptying
     0:00:00: Tank T8 is filling at 10.01 ft
   
   
  Hydraulic Status:
  -----------------------------------------------------------------------
     0:00:00: Balancing the network:
              Trial  1: relative flow change = 0.825110
              PRV 2 switched from active to open
              Trial  2: relative flow change = 0.616327
              PRV 2 switched from open to active
              FCV 1 switched from active to open
              Trial  3: relative flow change = 0.310654
              Trial  4: relative flow change = 0.080524
              FCV 1 switched from open to active
              Trial  5: relative flow change = 0.293804
              Trial  6: relative flow change = 0.030663
              Trial  7: relative flow change = 0.000024
              Trial  8: relative flow change = 0.000000
     0:00:00: Balanced after 8 trials
     0:00:00: Reservoir R1 is emptying
     0:00:00: Tank T8 is filling at 10.01 ft
   
   
  Hydraulic Status:
  -----------------------------------------------------------------------
     0:00:00: Balancing the network:
              Trial  1: relative flow change = 0.821559
              PRV 2 switched from active to open
              Trial  2: relative flow change = 0.609760
              PRV 2 switched from open to active
              FCV 1 switched from active to open
              Trial  3: relative flow change = 0.312421
              Trial  4: relative flow change = 0.070476
              FCV 1 switched from open to active
              Trial  5: relative flow change = 0.287338
              Trial  6: relative flow change = 0.026703
              Trial  7: relative flow change = 0.000070
              Trial  8: relative flow change = 0.000000
     0:00:00: Balanced after 8 trials
     0:00:00: Reservoir R1 is emptying
     0:00:00: Tank T8 is filling at 10.00 ft
   
   
  Hydraulic Status:
  -----------------------------------------------------------------------
     0:00:00: Balancing the network:
              Trial  1: relative flow change = 0.828865
              PRV 2 switched from active to open
              Trial  2: relative flow change = 0.633485
              PRV 2 switched from open to active
              FCV 1 switched from active to open
              Trial  3: relative flow change = 0.303556
              Trial  4: relative flow change = 0.065484
              FCV 1 switched from open to active
              Trial  5: relative flow change = 0.264041
              Trial  6: relative flow change = 0.026279
              Trial  7: relative flow change = 0.001302
              Trial  8: relative flow change = 0.000002
     0:00:00: Balanced after 8 trials
     0:00:00: Reservoir R1 is emptying
     0:00:00: Tank T8 is filling at 9.97 ft
   
   
  Hydraulic Status:
  -----------------------------------------------------------------------
     0:00:00: Balancing the network:
              Trial  1: relative flow change = 0.826824
              PRV 2 switched from active to open
              Trial  2: relative flow change = 0.627567
              PRV 2 switched from open to active
              FCV 1 switched from active to open
              Trial  3: relative flow change = 0.315400
              Trial  4: relative flow change = 0.052596
              FCV 1 switched from open to active
              Trial  5: relative flow change = 0.265577
              Trial  6: relative flow change = 0.022324
              Trial  7: relative flow change = 0.000705
              Trial  8: relative flow change = 0.000000
     0:00:00: Balanced after 8 trials
     0:00:00: Reservoir R1 is emptying
     0:00:00: Tank T8 is filling at 9.99 ft
   
   
  Hydraulic Status:
  -----------------------------------------------------------------------
     0:00:00: Balancing the network:
              Trial  1: relative flow change = 0.827569
              PRV 2 switched from active to open
              Trial  2: relative flow change = 0.613413
              PRV 2 switched from open to active
              FCV 1 switched from active to open
              Trial  3: relative flow change = 0.307617
              Trial  4: relative flow change = 0.067860
              FCV 1 switched from open to active
              Trial  5: relative flow change = 0.273566
              Trial  6: relative flow change = 0.028859
              Trial  7: relative flow change = 0.000659
              Trial  8: relative flow change = 0.000000
     0:00:00: Balanced after 8 trials
     0:00:00: Reservoir R1 is emptying
     0:00:00: Tank T8 is filling at 10.03 ft
   
   
  Hydraulic Status:
  -----------------------------------------------------------------------
     0:00:00: Balancing the network:
              Trial  1: relative flow change = 0.826763
              PRV 2 switched from active to open
              Trial  2: relative flow change = 0.613933
              PRV 2 switched from open to active
              FCV 1 switched from active to open
              Trial  3: relative flow change = 0.311012
              Trial  4: relative flow change = 0.074225
              FCV 1 switched from open to active
              Trial  5: relative flow change = 0.277928
              Trial  6: relative flow change = 0.026551
              Trial  7: relative flow change = 0.000377
              Trial  8: relative flow change = 0.000000
     0:00:00: Balanced after 8 trials
     0:00:00: Reservoir R1 is emptying
     0:00:00: Tank T8 is filling at 10.04 ft
   
   
  Hydraulic Status:
  -----------------------------------------------------------------------
     0:00:00: Balancing the network:
              Trial  1: relative flow change = 0.824798
              PRV 2 switched from active to open
              Trial  2: relative flow change = 0.620083
              PRV 2 switched from open to active
              FCV 1 switched from active to open
              Trial  3: relative flow change = 0.313643
              Trial  4: relative flow change = 0.075283
              FCV 1 switched from open to active
              Trial  5: relative flow change = 0.288264
              Trial  6: relative flow change = 0.025739
              Trial  7: relative flow change = 0.000113
              Trial  8: relative flow change = 0.000000
     0:00:00: Balanced after 8 trials
     0:00:00: Reservoir R1 is emptying
     0:00:00: Tank T8 is filling at 9.98 ft
   
   
  Hydraulic Status:
  -----------------------------------------------------------------------
     0:00:00: Balancing the network:
              Trial  1: relative flow change = 0.825564
              PRV 2 switched from active to open
              Trial  2: relative flow change = 0.613570
              PRV 2 switched from open to active
              FCV 1 switched from active to open
              Trial  3: relative flow change = 0.311405
              Trial  4: relative flow change = 0.070952
              FCV 1 switched from open to active
              Trial  5: relative flow change = 0.279680
              Trial  6: relative flow change = 0.024498
              Trial  7: relative flow change = 0.000238
              Trial  8: relative flow change = 0.000000
     0:00:00: Balanced after 8 trials
     0:00:00: Reservoir R1 is emptying
     0:00:00: Tank T8 is filling at 9.95 ft
   
   
  Hydraulic Status:
  -----------------------------------------------------------------------
     0:00:00: Balancing the network:
              Trial  1: relative flow change = 0.827565
              PRV 2 switched from active to open
              Trial  2: relative flow change = 0.622164
              PRV 2 switched from open to active
              FCV 1 switched from active to open
              Trial  3: relative flow change = 0.306204
              Trial  4: relative flow change = 0.076834
              FCV 1 switched from open to active
              Trial  5: relative flow change = 0.279459
              Trial  6: relative flow change = 0.027026
              Trial  7: relative flow change = 0.000135
              Trial  8: relative flow change = 0.000000
     0:00:00: Balanced after 8 trials
     0:00:00: Reservoir R1 is emptying
     0:00:00: Tank T8 is filling at 10.04 ft
   
   
  Hydraulic Status:
  -----------------------------------------------------------------------
     0:00:00: Balancing the network:
              Trial  1: relative flow change = 0.826550
              PRV 2 switched from active to open
              Trial  2: relative flow change = 0.620630
              PRV 2 switched from open to active
              FCV 1 switched from active to open
              Trial  3: relative flow change = 0.304208
              Trial  4: relative flow change = 0.061370
              FCV 1 switched from open to active
              Trial  5: relative flow change = 0.261643
              Trial  6: relative flow change = 0.026637
              Trial  7: relative flow change = 0.001338
              Trial  8: relative flow change = 0.000003
     0:00:00: Balanced after 8 trials
     0:00:00: Reservoir R1 is emptying
     0:00:00: Tank T8 is filling at 9.96 ft
   
   
  Hydraulic Status:
  -----------------------------------------------------------------------
     0:00:00: Balancing the network:
              Trial  1: relative flow change = 0.826665
              PRV 2 switched from active to open
              Trial  2: relative flow change = 0.617210
              PRV 2 switched from open to active
              FCV 1 switched from active to open
              Trial  3: relative flow change = 0.307453
              Trial  4: relative flow change = 0.059342
              FCV 1 switched from open to active
              Trial  5: relative flow change = 0.261158
              Trial  6: relative flow change = 0.023029
              Trial  7: relative flow change = 0.000240
              Trial  8: relative flow change = 0.000000
     0:00:00: Balanced after 8 trials
     0:00:00: Reservoir R1 is emptying
     0:00:00: Tank T8 is filling at 9.96 ft
   
   
  Hydraulic Status:
  -----------------------------------------------------------------------
     0:00:00: Balancing the network:
              Trial  1: relative flow change = 0.824528
              PRV 2 switched from active to open
              Trial  2: relative flow change = 0.611158
              PRV 2 switched from open to active
              FCV 1 switched from active to open
              Trial  3: relative flow change = 0.304541
              Trial  4: relative flow change = 0.070534
              FCV 1 switched from open to active
              Trial  5: relative flow change = 0.272388
              Trial  6: relative flow change = 0.026480
              Trial  7: relative flow change = 0.000959
              Trial  8: relative flow change = 0.000001
     0:00:00: Balanced after 8 trials
     0:00:00: Reservoir R1 is emptying
     0:00:00: Tank T8 is filling at 10.03 ft
   
   
  Hydraulic Status:
  -----------------------------------------------------------------------
     0:00:00: Balancing the network:
              Trial  1: relative flow change = 0.825610
              PRV 2 switched from active to open
              Trial  2: relative flow change = 0.624852
              PRV 2 switched from open to active
              FCV 1 switched from active to open
              Trial  3: relative flow change = 0.311047
              Trial  4: relative flow change = 0.071362
              FCV 1 switched from open to active
              Trial  5: relative flow change = 0.284916
              Trial  6: relative flow change = 0.026707
              Trial  7: relative flow change = 0.001182
              Trial  8: relative flow change = 0.000001
     0:00:00: Balanced after 8 trials
     0:00:00: Reservoir R1 is emptying
     0:00:00: Tank T8 is filling at 10.03 ft
   
   
  Hydraulic Status:
  -----------------------------------------------------------------------
     0:00:00: Balancing the network:
              Trial  1: relative flow change = 0.828289
              PRV 2 switched from active to open
              Trial  2: relative flow change = 0.623392
              PRV 2 switched from open to active
              FCV 1 switched from active to open
              Trial  3: relative flow change = 0.310820
              Trial  4: relative flow change = 0.072282
              FCV 1 switched from open to active
              Trial  5: relative flow change = 0.283983
              Trial  6: relative flow change = 0.027482
              Trial  7: relative flow change = 0.000110
              Trial  8: relative flow change = 0.000000
     0:00:00: Balanced after 8 trials
     0:00:00: Reservoir R1 is emptying
     0:00:00: Tank T8 is filling at 10.00 ft
   
   
  Hydraulic Status:
  -----------------------------------------------------------------------
     0:00:00: Balancing the network:
              Trial  1: relative flow change = 0.824114
              PRV 2 switched from active to open
              Trial  2: relative flow change = 0.614160
              PRV 2 switched from open to active
              FCV 1 switched from active to open
              Trial  3: relative flow change = 0.307950
              Trial  4: relative flow change = 0.070295
              FCV 1 switched from open to active
              Trial  5: relative flow change = 0.278435
              Trial  6: relative flow change = 0.027269
              Trial  7: relative flow change = 0.001139
              Trial  8: relative flow change = 0.000002
     0:00:00: Balanced after 8 trials
     0:00:00: Reservoir R1 is emptying
     0:00:00: Tank T8 is filling at 10.01 ft
   
   
  Hydraulic Status:
  -----------------------------------------------------------------------
     0:00:00: Balancing the network:
              Trial  1: relative flow change = 0.826980
              PRV 2 switched from active to open
              Trial  2: relative flow change = 0.623173
              PRV 2 switched from open to active
              FCV 1 switched from active to open
              Trial  3: relative flow change = 0.307588
              Trial  4: relative flow change = 0.064906
              FCV 1 switched from open to active
              Trial  5: relative flow change = 0.268445
              Trial  6: relative flow change = 0.027357
              Trial  7: relative flow change = 0.001532
              Trial  8: relative flow change = 0.000003
     0:00:00: Balanced after 8 trials
     0:00:00: Reservoir R1 is emptying
     0:00:00: Tank T8 is filling at 9.97 ft
   
   
  Hydraulic Status:
  -----------------------------------------------------------------------
     0:00:00: Balancing the network:
              Trial  1: relative flow change = 0.827105
              PRV 2 switched from active to open
              Trial  2: relative flow change = 0.628579
              PRV 2 switched from open to active
              FCV 1 switched from active to open
              Trial  3: relative flow change = 0.313303
              Trial  4: relative flow change = 0.066339
              FCV 1 switched from open to active
              Trial  5: relative flow change = 0.275035
              Trial  6: relative flow change = 0.023647
              Trial  7: relative flow change = 0.000123
              Trial  8: relative flow change = 0.000000
     0:00:00: Balanced after 8 trials
     0:00:00: Reservoir R1 is emptying
     0:00:00: Tank T8 is filling at 10.00 ft
   
   
  Hydraulic Status:
  -----------------------------------------------------------------------
     0:00:00: Balancing the network:
              Trial  1: relative flow change = 0.823211
              PRV 2 switched from active to open
              Trial  2: relative flow change = 0.612262
              PRV 2 switched from open to active
              FCV 1 switched from active to open
              Trial  3: relative flow change = 0.311045
              Trial  4: relative flow change = 0.079477
              FCV 1 switched from open to active
              Trial  5: relative flow change = 0.288919
              Trial  6: relative flow change = 0.023962
              Trial  7: relative flow change = 0.000094
              Trial  8: relative flow change = 0.000000
     0:00:00: Balanced after 8 trials
     0:00:00: Reservoir R1 is emptying
     0:00:00: Tank T8 is filling at 10.04 ft
   
   
  Hydraulic Status:
  -----------------------------------------------------------------------
     0:00:00: Balancing the network:
              Trial  1: relative flow change = 0.825293
              PRV 2 switched from active to open
              Trial  2: relative flow change = 0.632208
              PRV 2 switched from open to active
              FCV 1 switched from active to open
              Trial  3: relative flow change = 0.310682
              Trial  4: relative flow change = 0.064204
              FCV 1 switched from open to active
              Trial  5: relative flow change = 0.275680
              Trial  6: relative flow change = 0.027430
              Trial  7: relative flow change = 0.001669
              Trial  8: relative flow change = 0.000004
     0:00:00: Balanced after 8 trials
     0:00:00: Reservoir R1 is emptying
     0:00:00: Tank T8 is filling at 9.99 ft
   
   
  Hydraulic Status:
  -----------------------------------------------------------------------
     0:00:00: Balancing the network:
              Trial  1: relative flow change = 0.826258
              PRV 2 switched from active to open
              Trial  2: relative flow change = 0.611586
              PRV 2 switched from open to active
              FCV 1 switched from active to open
              Trial  3: relative flow change = 0.309397
              Trial  4: relative flow change = 0.069259
              FCV 1 switched from open to active
              Trial  5: relative flow change = 0.274784
              Trial  6: relative flow change = 0.026980
              Trial  7: relative flow change = 0.000071
              Trial  8: relative flow change = 0.000000
     0:00:00: Balanced after 8 trials
     0:00:00: Reservoir R1 is emptying
     0:00:00: Tank T8 is filling at 10.05 ft
   
   
  Hydraulic Status:
  -----------------------------------------------------------------------
     0:00:00: Balancing the network:
              Trial  1: relative flow change = 0.825808
              PRV 2 switched from active to open
              Trial  2: relative flow change = 0.622783
              PRV 2 switched from open to active
              FCV 1 switched from active to open
              Trial  3: relative flow change = 0.308951
              Trial  4: relative flow change = 0.059573
              FCV 1 switched from open to active
              Trial  5: relative flow change = 0.264537
              Trial  6: relative flow change = 0.022730
              Trial  7: relative flow change = 0.000321
              Trial  8: relative flow change = 0.000000
     0:00:00: Balanced after 8 trials
     0:00:00: Reservoir R1 is emptying
     0:00:00: Tank T8 is filling at 9.93 ft
   
   
  Hydraulic Status:
  -----------------------------------------------------------------------
     0:00:00: Balancing the network:
              Trial  1: relative flow change = 0.828955
              PRV 2 switched from active to open
              Trial  2: relative flow change = 0.619828
              PRV 2 switched from open to active
              FCV 1 switched from active to open
              Trial  3: relative flow change = 0.309260
              Trial  4: relative flow change = 0.075032
              FCV 1 switched from open to active
              Trial  5: relative flow change = 0.283286
              Trial  6: relative flow change = 0.028754
              Trial  7: relative flow change = 0.000441
              Trial  8: relative flow change = 0.000000
     0:00:00: Balanced after 8 trials
     0:00:00: Reservoir R1 is emptying
     0:00:00: Tank T8 is filling at 10.02 ft
   
   
  Hydraulic Status:
  -----------------------------------------------------------------------
     0:00:00: Balancing the network:
              Trial  1: relative flow change = 0.825265
              PRV 2 switched from active to open
              Trial  2: relative flow change = 0.614229
              PRV 2 switched from open to active
              FCV 1 switched from active to open
              Trial  3: relative flow change = 0.312189
              Trial  4: relative flow change = 0.071284
              FCV 1 switched from open to active
              Trial  5: relative flow change = 0.284052
              Trial  6: relative flow change = 0.028659
              Trial  7: relative flow change = 0.000267
              Trial  8: relative flow change = 0.000000
     0:00:00: Balanced after 8 trials
     0:00:00: Reservoir R1 is emptying
     0:00:00: Tank T8 is filling at 10.01 ft
   
   
  Hydraulic Status:
  -----------------------------------------------------------------------
     0:00:00: Balancing the network:
              Trial  1: relative flow change = 0.827219
              PRV 2 switched from active to open
              Trial  2: relative flow change = 0.611016
              PRV 2 switched from open to active
              FCV 1 switched from active to open
              Trial  3: relative flow change = 0.313896
              Trial  4: relative flow change = 0.078109
              FCV 1 switched from open to active
              Trial  5: relative flow change = 0.295368
              Trial  6: relative flow change = 0.036843
              Trial  7: relative flow change = 0.000579
              Trial  8: relative flow change = 0.000000
     0:00:00: Balanced after 8 trials
     0:00:00: Reservoir R1 is emptying
     0:00:00: Tank T8 is filling at 10.07 ft
   
   
  Hydraulic Status:
  -----------------------------------------------------------------------
     0:00:00: Balancing the network:
              Trial  1: relative flow change = 0.827615
              PRV 2 switched from active to open
              Trial  2: relative flow change = 0.620316
              PRV 2 switched from open to active
              FCV 1 switched from active to open
              Trial  3: relative flow change = 0.311209
              Trial  4: relative flow change = 0.061136
              FCV 1 switched from open to active
              Trial  5: relative flow change = 0.269524
              Trial  6: relative flow change = 0.027057
              Trial  7: relative flow change = 0.000708
              Trial  8: relative flow change = 0.000000
     0:00:00: Balanced after 8 trials
     0:00:00: Reservoir R1 is emptying
     0:00:00: Tank T8 is filling at 10.04 ft
   
   
  Hydraulic Status:
  -----------------------------------------------------------------------
     0:00:00: Balancing the network:
              Trial  1: relative flow change = 0.827950
              PRV 2 switched from active to open
              Trial  2: relative flow change = 0.617958
              PRV 2 switched from open to active
              FCV 1 switched from active to open
              Trial  3: relative flow change = 0.313354
              Trial  4: relative flow change = 0.076388
              FCV 1 switched from open to active
              Trial  5: relative flow change = 0.287165
              Trial  6: relative flow change = 0.030587
              Trial  7: relative flow change = 0.000160
              Trial  8: relative flow change = 0.000000
     0:00:00: Balanced after 8 trials
     0:00:00: Reservoir R1 is emptying
     0:00:00: Tank T8 is filling at 9.96 ft
   
   
  Hydraulic Status:
  -----------------------------------------------------------------------
     0:00:00: Balancing the network:
              Trial  1: relative flow change = 0.826765
              PRV 2 switched from active to open
              Trial  2: relative flow change = 0.618059
              PRV 2 switched from open to active
              FCV 1 switched from active to open
              Trial  3: relative flow change = 0.310359
              Trial  4: relative flow change = 0.074510
              FCV 1 switched from open to active
              Trial  5: relative flow change = 0.283478
              Trial  6: relative flow change = 0.031426
              Trial  7: relative flow change = 0.000532
              Trial  8: relative flow change = 0.000000
     0:00:00: Balanced after 8 trials
     0:00:00: Reservoir R1 is emptying
     0:00:00: Tank T8 is filling at 10.03 ft
   
   
  Hydraulic Status:
  -----------------------------------------------------------------------
     0:00:00: Balancing the network:
              Trial  1: relative flow change = 0.828038
              PRV 2 switched from active to open
              Trial  2: relative flow change = 0.611143
              PRV 2 switched from open to active
              FCV 1 switched from active to open
              Trial  3: relative flow change = 0.313025
              Trial  4: relative flow change = 0.067786
              FCV 1 switched from open to active
              Trial  5: relative flow change = 0.274431
              Trial  6: relative flow change = 0.024110
              Trial  7: relative flow change = 0.000443
              Trial  8: relative flow change = 0.000000
     0:00:00: Balanced after 8 trials
     0:00:00: Reservoir R1 is emptying
     0:00:00: Tank T8 is filling at 10.03 ft
   
   
  Hydraulic Status:
  -----------------------------------------------------------------------
     0:00:00: Balancing the network:
              Trial  1: relative flow change = 0.828541
              PRV 2 switched from active to open
              Trial  2: relative flow change = 0.627935
              PRV 2 switched from open to active
              FCV 1 switched from active to open
              Trial  3: relative flow change = 0.311589
              Trial  4: relative flow change = 0.066747
              FCV 1 switched from open to active
              Trial  5: relative flow change = 0.270542
              Trial  6: relative flow change = 0.024118
              Trial  7: relative flow change = 0.000159
              Trial  8: relative flow change = 0.000000
     0:00:00: Balanced after 8 trials
     0:00:00: Reservoir R1 is emptying
     0:00:00: Tank T8 is filling at 9.95 ft
   
   
  Hydraulic Status:
  -----------------------------------------------------------------------
     0:00:00: Balancing the network:
              Trial  1: relative flow change = 0.829031
              PRV 2 switched from active to open
              Trial  2: relative flow change = 0.620217
              PRV 2 switched from open to active
              FCV 1 switched from active to open
              Trial  3: relative flow change = 0.307821
              Trial  4: relative flow change = 0.074357
              FCV 1 switched from open to active
              Trial  5: relative flow change = 0.277352
              Trial  6: relative flow change = 0.025569
              Trial  7: relative flow change = 0.000049
              Trial  8: relative flow change = 0.000000
     0:00:00: Balanced after 8 trials
     0:00:00: Reservoir R1 is emptying
     0:00:00: Tank T8 is filling at 9.98 ft
   
   
  Hydraulic Status:
  -----------------------------------------------------------------------
     0:00:00: Balancing the network:
              Trial  1: relative flow change = 0.825729
              PRV 2 switched from active to open
              Trial  2: relative flow change = 0.624694
              PRV 2 switched from open to active
              FCV 1 switched from active to open
              Trial  3: relative flow change = 0.313103
              Trial  4: relative flow change = 0.074055
              FCV 1 switched from open to active
              Trial  5: relative flow change = 0.290460
              Trial  6: relative flow change = 0.029319
              Trial  7: relative flow change = 0.001000
              Trial  8: relative flow change = 0.000001
     0:00:00: Balanced after 8 trials
     0:00:00: Reservoir R1 is emptying
     0:00:00: Tank T8 is filling at 10.00 ft
   
   
  Hydraulic Status:
  -----------------------------------------------------------------------
     0:00:00: Balancing the network:
              Trial  1: relative flow change = 0.827508
              PRV 2 switched from active to open
              Trial  2: relative flow change = 0.612453
              PRV 2 switched from open to active
              FCV 1 switched from active to open
              Trial  3: relative flow change = 0.316027
              Trial  4: relative flow change = 0.075608
              FCV 1 switched from open to active
              Trial  5: relative flow change = 0.289624
              Trial  6: relative flow change = 0.026500
              Trial  7: relative flow change = 0.000373
              Trial  8: relative flow change = 0.000000
     0:00:00: Balanced after 8 trials
     0:00:00: Reservoir R1 is emptying
     0:00:00: Tank T8 is filling at 10.03 ft
   
   
  Hydraulic Status:
  -----------------------------------------------------------------------
     0:00:00: Balancing the network:
              Trial  1: relative flow change = 0.825422
              PRV 2 switched from active to open
              Trial  2: relative flow change = 0.625115
              PRV 2 switched from open to active
              FCV 1 switched from active to open
              Trial  3: relative flow change = 0.307198
              Trial  4: relative flow change = 0.064647
              FCV 1 switched from open to active
              Trial  5: relative flow change = 0.265433
              Trial  6: relative flow change = 0.020856
              Trial  7: relative flow change = 0.000187
              Trial  8: relative flow change = 0.000000
     0:00:00: Balanced after 8 trials
     0:00:00: Reservoir R1 is emptying
     0:00:00: Tank T8 is filling at 10.04 ft
   
   
  Hydraulic Status:
  -----------------------------------------------------------------------
     0:00:00: Balancing the network:
              Trial  1: relative flow change = 0.827144
              PRV 2 switched from active to open
              Trial  2: relative flow change = 0.618431
              PRV 2 switched from open to active
              FCV 1 switched from active to open
              Trial  3: relative flow change = 0.313118
              Trial  4: relative flow change = 0.048844
              FCV 1 switched from open to active
              Trial  5: relative flow change = 0.256946
              Trial  6: relative flow change = 0.025557
              Trial  7: relative flow change = 0.001483
              Trial  8: relative flow change = 0.000001
     0:00:00: Balanced after 8 trials
     0:00:00: Reservoir R1 is emptying
     0:00:00: Tank T8 is filling at 10.06 ft
   
   
  Hydraulic Status:
  -----------------------------------------------------------------------
     0:00:00: Balancing the network:
              Trial  1: relative flow change = 0.823819
              PRV 2 switched from active to open
              Trial  2: relative flow change = 0.614543
              PRV 2 switched from open to active
              FCV 1 switched from active to open
              Trial  3: relative flow change = 0.309478
              Trial  4: relative flow change = 0.078631
              FCV 1 switched from open to active
              Trial  5: relative flow change = 0.280600
              Trial  6: relative flow change = 0.024070
              Trial  7: relative flow change = 0.000436
              Trial  8: relative flow change = 0.000000
     0:00:00: Balanced after 8 trials
     0:00:00: Reservoir R1 is emptying
     0:00:00: Tank T8 is filling at 10.00 ft
   
   
  Hydraulic Status:
  -----------------------------------------------------------------------
     0:00:00: Balancing the network:
              Trial  1: relative flow change = 0.824080
              PRV 2 switched from active to open
              Trial  2: relative flow change = 0.616194
              PRV 2 switched from open to active
              FCV 1 switched from active to open
              Trial  3: relative flow change = 0.307038
              Trial  4: relative flow change = 0.063093
              FCV 1 switched from open to active
              Trial  5: relative flow change = 0.266443
              Trial  6: relative flow change = 0.025895
              Trial  7: relative flow change = 0.001394
              Trial  8: relative flow change = 0.000003
     0:00:00: Balanced after 8 trials
     0:00:00: Reservoir R1 is emptying
     0:00:00: Tank T8 is filling at 9.96 ft
   
   
  Hydraulic Status:
  -----------------------------------------------------------------------
     0:00:00: Balancing the network:
              Trial  1: relative flow change = 0.828012
              PRV 2 switched from active to open
              Trial  2: relative flow change = 0.628804
              PRV 2 switched from open to active
              FCV 1 switched from active to open
              Trial  3: relative flow change = 0.307892
              Trial  4: relative flow change = 0.065474
              FCV 1 switched from open to active
              Trial  5: relative flow change = 0.267731
              Trial  6: relative flow change = 0.024417
              Trial  7: relative flow change = 0.000305
              Trial  8: relative flow change = 0.000000
     0:00:00: Balanced after 8 trials
     0:00:00: Reservoir R1 is emptying
     0:00:00: Tank T8 is filling at 9.99 ft
   
   
  Hydraulic Status:
  -----------------------------------------------------------------------
     0:00:00: Balancing the network:
              Trial  1: relative flow change = 0.827481
              PRV 2 switched from active to open
              Trial  2: relative flow change = 0.621712
              PRV 2 switched from open to active
              FCV 1 switched from active to open
              Trial  3: relative flow change = 0.311129
              Trial  4: relative flow change = 0.074541
              FCV 1 switched from open to active
              Trial  5: relative flow change = 0.285039
              Trial  6: relative flow change = 0.029456
              Trial  7: relative flow change = 0.000128
              Trial  8: relative flow change = 0.000000
     0:00:00: Balanced after 8 trials
     0:00:00: Reservoir R1 is emptying
     0:00:00: Tank T8 is filling at 10.01 ft
   
   
  Hydraulic Status:
  -----------------------------------------------------------------------
     0:00:00: Balancing the network:
              Trial  1: relative flow change = 0.823672
              PRV 2 switched from active to open
              Trial  2: relative flow change = 0.616452
              PRV 2 switched from open to active
              FCV 1 switched from active to open
              Trial  3: relative flow change = 0.314609
              Trial  4: relative flow change = 0.067908
              FCV 1 switched from open to active
              Trial  5: relative flow change = 0.287892
              Trial  6: relative flow change = 0.029649
              Trial  7: relative flow change = 0.000987
              Trial  8: relative flow change = 0.000000
     0:00:00: Balanced after 8 trials
     0:00:00: Reservoir R1 is emptying
     0:00:00: Tank T8 is filling at 10.01 ft
   
   
  Hydraulic Status:
  -----------------------------------------------------------------------
     0:00:00: Balancing the network:
              Trial  1: relative flow change = 0.824846
              PRV 2 switched from active to open
              Trial  2: relative flow change = 0.615384
              PRV 2 switched from open to active
              FCV 1 switched from active to open
              Trial  3: relative flow change = 0.309307
              Trial  4: relative flow change = 0.069838
              FCV 1 switched from open to active
              Trial  5: relative flow change = 0.278486
              Trial  6: relative flow change = 0.026124
              Trial  7: relative flow change = 0.000505
              Trial  8: relative flow change = 0.000000
     0:00:00: Balanced after 8 trials
     0:00:00: Reservoir R1 is emptying
     0:00:00: Tank T8 is filling at 9.98 ft
   
   
  Hydraulic Status:
  -----------------------------------------------------------------------
     0:00:00: Balancing the network:
              Trial  1: relative flow change = 0.827769
              PRV 2 switched from active to open
              Trial  2: relative flow change = 0.625314
              PRV 2 switched from open to active
              FCV 1 switched from active to open
              Trial  3: relative flow change = 0.311255
              Trial  4: relative flow change = 0.059164
              FCV 1 switched from open to active
              Trial  5: relative flow change = 0.263892
              Trial  6: relative flow change = 0.023634
              Trial  7: relative flow change = 0.000806
              Trial  8: relative flow change = 0.000001
     0:00:00: Balanced after 8 trials
     0:00:00: Reservoir R1 is emptying
     0:00:00: Tank T8 is filling at 9.97 ft
   
   
  Hydraulic Status:
  -----------------------------------------------------------------------
     0:00:00: Balancing the network:
              Trial  1: relative flow change = 0.828358
              PRV 2 switched from active to open
              Trial  2: relative flow change = 0.618196
              PRV 2 switched from open to active
              FCV 1 switched from active to open
              Trial  3: relative flow change = 0.304229
              Trial  4: relative flow change = 0.061563
              FCV 1 switched from open to active
              Trial  5: relative flow change = 0.261244
              Trial  6: relative flow change = 0.026261
              Trial  7: relative flow change = 0.000614
              Trial  8: relative flow change = 0.000000
     0:00:00: Balanced after 8 trials
     0:00:00: Reservoir R1 is emptying
     0:00:00: Tank T8 is filling at 10.04 ft
   
   
  Hydraulic Status:
  -----------------------------------------------------------------------
     0:00:00: Balancing the network:
              Trial  1: relative flow change = 0.822850
              PRV 2 switched from active to open
              Trial  2: relative flow change = 0.609871
              PRV 2 switched from open to active
              FCV 1 switched from active to open
              Trial  3: relative flow change = 0.307946
              Trial  4: relative flow change = 0.070119
              FCV 1 switched from open to active
              Trial  5: relative flow change = 0.279529
              Trial  6: relative flow change = 0.027128
              Trial  7: relative flow change = 0.000243
              Trial  8: relative flow change = 0.000000
     0:00:00: Balanced after 8 trials
     0:00:00: Reservoir R1 is emptying
     0:00:00: Tank T8 is filling at 10.02 ft
   
   
  Hydraulic Status:
  -----------------------------------------------------------------------
     0:00:00: Balancing the network:
              Trial  1: relative flow change = 0.827341
              PRV 2 switched from active to open
              Trial  2: relative flow change = 0.625566
              PRV 2 switched from open to active
              FCV 1 switched from active to open
              Trial  3: relative flow change = 0.312965
              Trial  4: relative flow change = 0.084819
              FCV 1 switched from open to active
              Trial  5: relative flow change = 0.297003
              Trial  6: relative flow change = 0.029407
              Trial  7: relative flow change = 0.000250
              Trial  8: relative flow change = 0.000000
     0:00:00: Balanced after 8 trials
     0:00:00: Reservoir R1 is emptying
     0:00:00: Tank T8 is filling at 9.98 ft
   
   
  Hydraulic Status:
  -----------------------------------------------------------------------
     0:00:00: Balancing the network:
              Trial  1: relative flow change = 0.827728
              PRV 2 switched from active to open
              Trial  2: relative flow change = 0.629219
              PRV 2 switched from open to active
              FCV 1 switched from active to open
              Trial  3: relative flow change = 0.308969
              Trial  4: relative flow change = 0.060489
              FCV 1 switched from open to active
              Trial  5: relative flow change = 0.265696
              Trial  6: relative flow change = 0.022950
              Trial  7: relative flow change = 0.000307
              Trial  8: relative flow change = 0.000000
     0:00:00: Balanced after 8 trials
     0:00:00: Reservoir R1 is emptying
     0:00:00: Tank T8 is filling at 10.03 ft
   
   
  Hydraulic Status:
  -----------------------------------------------------------------------
     0:00:00: Balancing the network:
              Trial  1: relative flow change = 0.828147
              PRV 2 switched from active to open
              Trial  2: relative flow change = 0.616283
              PRV 2 switched from open to active
              FCV 1 switched from active to open
              Trial  3: relative flow change = 0.305254
              Trial  4: relative flow change = 0.068515
              FCV 1 switched from open to active
              Trial  5: relative flow change = 0.269790
              Trial  6: relative flow change = 0.023857
              Trial  7: relative flow change = 0.000469
              Trial  8: relative flow change = 0.000000
     0:00:00: Balanced after 8 trials
     0:00:00: Reservoir R1 is emptying
     0:00:00: Tank T8 is filling at 10.03 ft
   
   
  Hydraulic Status:
  -----------------------------------------------------------------------
     0:00:00: Balancing the network:
              Trial  1: relative flow change = 0.826210
              PRV 2 switched from active to open
              Trial  2: relative flow change = 0.619925
              PRV 2 switched from open to active
              FCV 1 switched from active to open
              Trial  3: relative flow change = 0.301192
              Trial  4: relative flow change = 0.069522
              FCV 1 switched from open to active
              Trial  5: relative flow change = 0.265140
              Trial  6: relative flow change = 0.024181
              Trial  7: relative flow change = 0.000028
              Trial  8: relative flow change = 0.000000
     0:00:00: Balanced after 8 trials
     0:00:00: Reservoir R1 is emptying
     0:00:00: Tank T8 is filling at 10.01 ft
   
   
  Hydraulic Status:
  -----------------------------------------------------------------------
     0:00:00: Balancing the network:
              Trial  1: relative flow change = 0.824106
              PRV 2 switched from active to open
              Trial  2: relative flow change = 0.622236
              PRV 2 switched from open to active
              FCV 1 switched from active to open
              Trial  3: relative flow change = 0.307110
              Trial  4: relative flow change = 0.059338
              FCV 1 switched from open to active
              Trial  5: relative flow change = 0.262678
              Trial  6: relative flow change = 0.028592
              Trial  7: relative flow change = 0.002390
              Trial  8: relative flow change = 0.000014
              Trial  9: relative flow change = 0.000000
     0:00:00: Balanced after 9 trials
     0:00:00: Reservoir R1 is emptying
     0:00:00: Tank T8 is filling at 10.04 ft
   
   
  Hydraulic Status:
  -----------------------------------------------------------------------
     0:00:00: Balancing the network:
              Trial  1: relative flow change = 0.826812
              PRV 2 switched from active to open
              Trial  2: relative flow change = 0.629842
              PRV 2 switched from open to active
              FCV 1 switched from active to open
              Trial  3: relative flow change = 0.308050
              Trial  4: relative flow change = 0.060674
              FCV 1 switched from open to active
              Trial  5: relative flow change = 0.265038
              Trial  6: relative flow change = 0.026889
              Trial  7: relative flow change = 0.001960
              Trial  8: relative flow change = 0.000006
     0:00:00: Balanced after 8 trials
     0:00:00: Reservoir R1 is emptying
     0:00:00: Tank T8 is filling at 9.98 ft
   
   
  Hydraulic Status:
  -----------------------------------------------------------------------
     0:00:00: Balancing the network:
              Trial  1: relative flow change = 0.826900
              PRV 2 switched from active to open
              Trial  2: relative flow change = 0.610443
              PRV 2 switched from open to active
              FCV 1 switched from active to open
              Trial  3: relative flow change = 0.309555
              Trial  4: relative flow change = 0.074248
              FCV 1 switched from open to active
              Trial  5: relative flow change = 0.276214
              Trial  6: relative flow change = 0.021843
              Trial  7: relative flow change = 0.000199
              Trial  8: relative flow change = 0.000000
     0:00:00: Balanced after 8 trials
     0:00:00: Reservoir R1 is emptying
     0:00:00: Tank T8 is filling at 9.93 ft
   
   
  Hydraulic Status:
  -----------------------------------------------------------------------
     0:00:00: Balancing the network:
              Trial  1: relative flow change = 0.827962
              PRV 2 switched from active to open
              Trial  2: relative flow change = 0.618188
              PRV 2 switched from open to active
              FCV 1 switched from active to open
              Trial  3: relative flow change = 0.308298
              Trial  4: relative flow change = 0.076439
              FCV 1 switched from open to active
              Trial  5: relative flow change = 0.278717
              Trial  6: relative flow change = 0.026298
              Trial  7: relative flow change = 0.000236
              Trial  8: relative flow change = 0.000000
     0:00:00: Balanced after 8 trials
     0:00:00: Reservoir R1 is emptying
     0:00:00: Tank T8 is filling at 10.08 ft
   
   
  Hydraulic Status:
  -----------------------------------------------------------------------
     0:00:00: Balancing the network:
              Trial  1: relative flow change = 0.825344
              PRV 2 switched from active to open
              Trial  2: relative flow change = 0.619246
              PRV 2 switched from open to active
              FCV 1 switched from active to open
              Trial  3: relative flow change = 0.305851
              Trial  4: relative flow change = 0.076341
              FCV 1 switched from open to active
              Trial  5: relative flow change = 0.276644
              Trial  6: relative flow change = 0.025582
              Trial  7: relative flow change = 0.000026
              Trial  8: relative flow change = 0.000000
     0:00:00: Balanced after 8 trials
     0:00:00: Reservoir R1 is emptying
     0:00:00: Tank T8 is filling at 10.03 ft
   
   
  Hydraulic Status:
  -----------------------------------------------------------------------
     0:00:00: Balancing the network:
              Trial  1: relative flow change = 0.829155
              PRV 2 switched from active to open
              Trial  2: relative flow change = 0.625915
              PRV 2 switched from open to active
              FCV 1 switched from active to open
              Trial  3: relative flow change = 0.309274
              Trial  4: relative flow change = 0.061790
              FCV 1 switched from open to active
              Trial  5: relative flow change = 0.267840
              Trial  6: relative flow change = 0.026446
              Trial  7: relative flow change = 0.000796
              Trial  8: relative flow change = 0.000000
     0:00:00: Balanced after 8 trials
     0:00:00: Reservoir R1 is emptying
     0:00:00: Tank T8 is filling at 9.98 ft
   
   
  Hydraulic Status:
  -----------------------------------------------------------------------
     0:00:00: Balancing the network:
              Trial  1: relative flow change = 0.827126
              PRV 2 switched from active to open
              Trial  2: relative flow change = 0.622859
              PRV 2 switched from open to active
              FCV 1 switched from active to open
              Trial  3: relative flow change = 0.308650
              Trial  4: relative flow change = 0.067459
              FCV 1 switched from open to active
              Trial  5: relative flow change = 0.274335
              Trial  6: relative flow change = 0.028593
              Trial  7: relative flow change = 0.001011
              Trial  8: relative flow change = 0.000000
     0:00:00: Balanced after 8 trials
     0:00:00: Reservoir R1 is emptying
     0:00:00: Tank T8 is filling at 10.03 ft
   
   
  Hydraulic Status:
  -----------------------------------------------------------------------
     0:00:00: Balancing the network:
              Trial  1: relative flow change = 0.826972
              PRV 2 switched from active to open
              Trial  2: relative flow change = 0.630813
              PRV 2 switched from open to active
              FCV 1 switched from active to open
              Trial  3: relative flow change = 0.310268
              Trial  4: relative flow change = 0.069849
              FCV 1 switched from open to active
              Trial  5: relative flow change = 0.279535
              Trial  6: relative flow change = 0.024569
              Trial  7: relative flow change = 0.000334
              Trial  8: relative flow change = 0.000000
     0:00:00: Balanced after 8 trials
     0:00:00: Reservoir R1 is emptying
     0:00:00: Tank T8 is filling at 10.00 ft
   
   
  Hydraulic Status:
  -----------------------------------------------------------------------
     0:00:00: Balancing the network:
              Trial  1: relative flow change = 0.825181
              PRV 2 switched from active to open
              Trial  2: relative flow change = 0.617649
              PRV 2 switched from open to active
              FCV 1 switched from active to open
              Trial  3: relative flow change = 0.318364
              Trial  4: relative flow change = 0.061293
              FCV 1 switched from open to active
              Trial  5: relative flow change = 0.279261
              Trial  6: relative flow change = 0.024416
              Trial  7: relative flow change = 0.000075
              Trial  8: relative flow change = 0.000000
     0:00:00: Balanced after 8 trials
     0:00:00: Reservoir R1 is emptying
     0:00:00: Tank T8 is filling at 9.94 ft
   
   
  Hydraulic Status:
  -----------------------------------------------------------------------
     0:00:00: Balancing the network:
              Trial  1: relative flow change = 0.825404
              PRV 2 switched from active to open
              Trial  2: relative flow change = 0.622159
              PRV 2 switched from open to active
              FCV 1 switched from active to open
              Trial  3: relative flow change = 0.310628
              Trial  4: relative flow change = 0.064421
              FCV 1 switched from open to active
              Trial  5: relative flow change = 0.269331
              Trial  6: relative flow change = 0.023337
              Trial  7: relative flow change = 0.000601
              Trial  8: relative flow change = 0.000000
     0:00:00: Balanced after 8 trials
     0:00:00: Reservoir R1 is emptying
     0:00:00: Tank T8 is filling at 9.98 ft
   
   
  Hydraulic Status:
  -----------------------------------------------------------------------
     0:00:00: Balancing the network:
              Trial  1: relative flow change = 0.826703
              PRV 2 switched from active to open
              Trial  2: relative flow change = 0.614911
              PRV 2 switched from open to active
              FCV 1 switched from active to open
              Trial  3: relative flow change = 0.305291
              Trial  4: relative flow change = 0.076792
              FCV 1 switched from open to active
              Trial  5: relative flow change = 0.278032
              Trial  6: relative flow change = 0.027896
              Trial  7: relative flow change = 0.000352
              Trial  8: relative flow change = 0.000000
     0:00:00: Balanced after 8 trials
     0:00:00: Reservoir R1 is emptying
     0:00:00: Tank T8 is filling at 9.95 ft
   
   
  Hydraulic Status:
  -----------------------------------------------------------------------
     0:00:00: Balancing the network:
              Trial  1: relative flow change = 0.827685
              PRV 2 switched from active to open
              Trial  2: relative flow change = 0.625610
              PRV 2 switched from open to active
              FCV 1 switched from active to open
              Trial  3: relative flow change = 0.312458
              Trial  4: relative flow change = 0.069592
              FCV 1 switched from open to active
              Trial  5: relative flow change = 0.277527
              Trial  6: relative flow change = 0.025097
[...]
   
   
  Hydraulic Status:
  -----------------------------------------------------------------------
     0:00:00: Balancing the network:
              Trial  1: relative flow change = 0.827386
              PRV 2 switched from active to open
              Trial  2: relative flow change = 0.604894
              PRV 2 switched from open to active
              FCV 1 switched from active to open
              Trial  3: relative flow change = 0.311908
              Trial  4: relative flow change = 0.064809
              FCV 1 switched from open to active
              Trial  5: relative flow change = 0.274181
              Trial  6: relative flow change = 0.030004
              Trial  7: relative flow change = 0.000199
              Trial  8: relative flow change = 0.000000
     0:00:00: Balanced after 8 trials
     0:00:00: Reservoir R1 is emptying
     0:00:00: Tank T8 is filling at 9.95 ft
   
   
  Hydraulic Status:
  -----------------------------------------------------------------------
     0:00:00: Balancing the network:
              Trial  1: relative flow change = 0.827424
              PRV 2 switched from active to open
              Trial  2: relative flow change = 0.625412
              PRV 2 switched from open to active
              FCV 1 switched from active to open
              Trial  3: relative flow change = 0.306247
              Trial  4: relative flow change = 0.056829
              FCV 1 switched from open to active
              Trial  5: relative flow change = 0.256116
              Trial  6: relative flow change = 0.022837
              Trial  7: relative flow change = 0.000965
              Trial  8: relative flow change = 0.000000
     0:00:00: Balanced after 8 trials
     0:00:00: Reservoir R1 is emptying
     0:00:00: Tank T8 is filling at 10.03 ft
   
   
  Hydraulic Status:
  -----------------------------------------------------------------------
     0:00:00: Balancing the network:
              Trial  1: relative flow change = 0.825483
              PRV 2 switched from active to open
              Trial  2: relative flow change = 0.617614
              PRV 2 switched from open to active
              FCV 1 switched from active to open
              Trial  3: relative flow change = 0.310836
              Trial  4: relative flow change = 0.068898
              FCV 1 switched from open to active
              Trial  5: relative flow change = 0.280479
              Trial  6: relative flow change = 0.027018
              Trial  7: relative flow change = 0.000335
              Trial  8: relative flow change = 0.000000
     0:00:00: Balanced after 8 trials
     0:00:00: Reservoir R1 is emptying
     0:00:00: Tank T8 is filling at 10.03 ft
   
   
  Hydraulic Status:
  -----------------------------------------------------------------------
     0:00:00: Balancing the network:
              Trial  1: relative flow change = 0.827123
              PRV 2 switched from active to open
              Trial  2: relative flow change = 0.628245
              PRV 2 switched from open to active
              FCV 1 switched from active to open
              Trial  3: relative flow change = 0.310401
              Trial  4: relative flow change = 0.075475
              FCV 1 switched from open to active
              Trial  5: relative flow change = 0.278934
              Trial  6: relative flow change = 0.022865
              Trial  7: relative flow change = 0.000149
              Trial  8: relative flow change = 0.000000
     0:00:00: Balanced after 8 trials
     0:00:00: Reservoir R1 is emptying
     0:00:00: Tank T8 is filling at 10.00 ft
   
   
  Hydraulic Status:
  -----------------------------------------------------------------------
     0:00:00: Balancing the network:
              Trial  1: relative flow change = 0.827403
              PRV 2 switched from active to open
              Trial  2: relative flow change = 0.614333
              PRV 2 switched from open to active
              FCV 1 switched from active to open
              Trial  3: relative flow change = 0.309918
              Trial  4: relative flow change = 0.066910
              FCV 1 switched from open to active
              Trial  5: relative flow change = 0.275218
              Trial  6: relative flow change = 0.023829
              Trial  7: relative flow change = 0.000303
              Trial  8: relative flow change = 0.000000
     0:00:00: Balanced after 8 trials
     0:00:00: Reservoir R1 is emptying
     0:00:00: Tank T8 is filling at 10.08 ft
   
   
  Hydraulic Status:
  -----------------------------------------------------------------------
     0:00:00: Balancing the network:
              Trial  1: relative flow change = 0.823931
              PRV 2 switched from active to open
              Trial  2: relative flow change = 0.613438
              PRV 2 switched from open to active
              FCV 1 switched from active to open
              Trial  3: relative flow change = 0.310223
              Trial  4: relative flow change = 0.079676
              FCV 1 switched from open to active
              Trial  5: relative flow change = 0.297447
              Trial  6: relative flow change = 0.032043
              Trial  7: relative flow change = 0.000195
              Trial  8: relative flow change = 0.000000
     0:00:00: Balanced after 8 trials
     0:00:00: Reservoir R1 is emptying
     0:00:00: Tank T8 is filling at 9.99 ft
   
   
  Hydraulic Status:
  -----------------------------------------------------------------------
     0:00:00: Balancing the network:
              Trial  1: relative flow change = 0.829687
              PRV 2 switched from active to open
              Trial  2: relative flow change = 0.625573
              PRV 2 switched from open to active
              FCV 1 switched from active to open
              Trial  3: relative flow change = 0.307412
              Trial  4: relative flow change = 0.067884
              FCV 1 switched from open to active
              Trial  5: relative flow change = 0.270673
              Trial  6: relative flow change = 0.023705
              Trial  7: relative flow change = 0.000182
              Trial  8: relative flow change = 0.000000
     0:00:00: Balanced after 8 trials
     0:00:00: Reservoir R1 is emptying
     0:00:00: Tank T8 is filling at 10.04 ft
   
   
  Hydraulic Status:
  -----------------------------------------------------------------------
     0:00:00: Balancing the network:
              Trial  1: relative flow change = 0.825337
              PRV 2 switched from active to open
              Trial  2: relative flow change = 0.628904
              PRV 2 switched from open to active
              FCV 1 switched from active to open
              Trial  3: relative flow change = 0.306751
              Trial  4: relative flow change = 0.066135
              FCV 1 switched from open to active
              Trial  5: relative flow change = 0.272495
              Trial  6: relative flow change = 0.028299
              Trial  7: relative flow change = 0.001753
              Trial  8: relative flow change = 0.000005
     0:00:00: Balanced after 8 trials
     0:00:00: Reservoir R1 is emptying
     0:00:00: Tank T8 is filling at 10.01 ft
   
   
  Hydraulic Status:
  -----------------------------------------------------------------------
     0:00:00: Balancing the network:
              Trial  1: relative flow change = 0.824960
              PRV 2 switched from active to open
              Trial  2: relative flow change = 0.623401
              PRV 2 switched from open to active
              FCV 1 switched from active to open
              Trial  3: relative flow change = 0.307013
              Trial  4: relative flow change = 0.077548
              FCV 1 switched from open to active
              Trial  5: relative flow change = 0.281498
              Trial  6: relative flow change = 0.024456
              Trial  7: relative flow change = 0.000177
              Trial  8: relative flow change = 0.000000
     0:00:00: Balanced after 8 trials
     0:00:00: Reservoir R1 is emptying
     0:00:00: Tank T8 is filling at 10.02 ft
   
   
  Hydraulic Status:
  -----------------------------------------------------------------------
     0:00:00: Balancing the network:
              Trial  1: relative flow change = 0.827118
              PRV 2 switched from active to open
              Trial  2: relative flow change = 0.624970
              PRV 2 switched from open to active
              FCV 1 switched from active to open
              Trial  3: relative flow change = 0.310400
              Trial  4: relative flow change = 0.072244
              FCV 1 switched from open to active
              Trial  5: relative flow change = 0.283961
              Trial  6: relative flow change = 0.030772
              Trial  7: relative flow change = 0.000642
              Trial  8: relative flow change = 0.000000
     0:00:00: Balanced after 8 trials
     0:00:00: Reservoir R1 is emptying
     0:00:00: Tank T8 is filling at 10.01 ft
   
   
  Hydraulic Status:
  -----------------------------------------------------------------------
     0:00:00: Balancing the network:
              Trial  1: relative flow change = 0.829169
              PRV 2 switched from active to open
              Trial  2: relative flow change = 0.624436
              PRV 2 switched from open to active
              FCV 1 switched from active to open
              Trial  3: relative flow change = 0.312997
              Trial  4: relative flow change = 0.064711
              FCV 1 switched from open to active
              Trial  5: relative flow change = 0.272528
              Trial  6: relative flow change = 0.023725
              Trial  7: relative flow change = 0.000282
              Trial  8: relative flow change = 0.000000
     0:00:00: Balanced after 8 trials
     0:00:00: Reservoir R1 is emptying
     0:00:00: Tank T8 is filling at 9.99 ft
   
   
  Hydraulic Status:
  -----------------------------------------------------------------------
     0:00:00: Balancing the network:
              Trial  1: relative flow change = 0.825186
              PRV 2 switched from active to open
              Trial  2: relative flow change = 0.615435
              PRV 2 switched from open to active
              FCV 1 switched from active to open
              Trial  3: relative flow change = 0.304006
              Trial  4: relative flow change = 0.071487
              FCV 1 switched from open to active
              Trial  5: relative flow change = 0.270037
              Trial  6: relative flow change = 0.022002
              Trial  7: relative flow change = 0.000183
              Trial  8: relative flow change = 0.000000
     0:00:00: Balanced after 8 trials
     0:00:00: Reservoir R1 is emptying
     0:00:00: Tank T8 is filling at 10.06 ft
   
   
  Hydraulic Status:
  -----------------------------------------------------------------------
     0:00:00: Balancing the network:
              Trial  1: relative flow change = 0.828351
              PRV 2 switched from active to open
              Trial  2: relative flow change = 0.623290
              PRV 2 switched from open to active
              FCV 1 switched from active to open
              Trial  3: relative flow change = 0.310213
              Trial  4: relative flow change = 0.072992
              FCV 1 switched from open to active
              Trial  5: relative flow change = 0.283550
              Trial  6: relative flow change = 0.023796
              Trial  7: relative flow change = 0.000230
              Trial  8: relative flow change = 0.000000
     0:00:00: Balanced after 8 trials
     0:00:00: Reservoir R1 is emptying
     0:00:00: Tank T8 is filling at 10.04 ft
   
   
  Hydraulic Status:
  -----------------------------------------------------------------------
     0:00:00: Balancing the network:
              Trial  1: relative flow change = 0.824529
              PRV 2 switched from active to open
              Trial  2: relative flow change = 0.602122
              PRV 2 switched from open to active
              FCV 1 switched from active to open
              Trial  3: relative flow change = 0.308548
              Trial  4: relative flow change = 0.070926
              FCV 1 switched from open to active
              Trial  5: relative flow change = 0.278481
              Trial  6: relative flow change = 0.027040
              Trial  7: relative flow change = 0.000525
              Trial  8: relative flow change = 0.000000
     0:00:00: Balanced after 8 trials
     0:00:00: Reservoir R1 is emptying
     0:00:00: Tank T8 is filling at 9.94 ft
   
   
  Hydraulic Status:
  -----------------------------------------------------------------------
     0:00:00: Balancing the network:
              Trial  1: relative flow change = 0.827894
              PRV 2 switched from active to open
              Trial  2: relative flow change = 0.628601
              PRV 2 switched from open to active
              FCV 1 switched from active to open
              Trial  3: relative flow change = 0.311801
              Trial  4: relative flow change = 0.067267
              FCV 1 switched from open to active
              Trial  5: relative flow change = 0.276859
              Trial  6: relative flow change = 0.027055
              Trial  7: relative flow change = 0.001302
              Trial  8: relative flow change = 0.000002
     0:00:00: Balanced after 8 trials
     0:00:00: Reservoir R1 is emptying
     0:00:00: Tank T8 is filling at 10.00 ft
   
   
  Hydraulic Status:
  -----------------------------------------------------------------------
     0:00:00: Balancing the network:
              Trial  1: relative flow change = 0.823552
              PRV 2 switched from active to open
              Trial  2: relative flow change = 0.610581
              PRV 2 switched from open to active
              FCV 1 switched from active to open
              Trial  3: relative flow change = 0.307113
              Trial  4: relative flow change = 0.069041
              FCV 1 switched from open to active
              Trial  5: relative flow change = 0.273431
              Trial  6: relative flow change = 0.024790
              Trial  7: relative flow change = 0.000074
              Trial  8: relative flow change = 0.000000
     0:00:00: Balanced after 8 trials
     0:00:00: Reservoir R1 is emptying
     0:00:00: Tank T8 is filling at 10.00 ft
   
   
  Hydraulic Status:
  -----------------------------------------------------------------------
     0:00:00: Balancing the network:
              Trial  1: relative flow change = 0.826635
              PRV 2 switched from active to open
              Trial  2: relative flow change = 0.633018
              PRV 2 switched from open to active
              FCV 1 switched from active to open
              Trial  3: relative flow change = 0.308791
              Trial  4: relative flow change = 0.062069
              FCV 1 switched from open to active
              Trial  5: relative flow change = 0.264831
              Trial  6: relative flow change = 0.022074
              Trial  7: relative flow change = 0.000680
              Trial  8: relative flow change = 0.000000
     0:00:00: Balanced after 8 trials
     0:00:00: Reservoir R1 is emptying
     0:00:00: Tank T8 is filling at 10.00 ft
   
   
  Hydraulic Status:
  -----------------------------------------------------------------------
     0:00:00: Balancing the network:
              Trial  1: relative flow change = 0.830447
              PRV 2 switched from active to open
              Trial  2: relative flow change = 0.626105
              PRV 2 switched from open to active
              FCV 1 switched from active to open
              Trial  3: relative flow change = 0.308538
              Trial  4: relative flow change = 0.068196
              FCV 1 switched from open to active
              Trial  5: relative flow change = 0.273972
              Trial  6: relative flow change = 0.027927
              Trial  7: relative flow change = 0.000062
              Trial  8: relative flow change = 0.000000
     0:00:00: Balanced after 8 trials
     0:00:00: Reservoir R1 is emptying
     0:00:00: Tank T8 is filling at 10.06 ft
   
   
  Hydraulic Status:
  -----------------------------------------------------------------------
     0:00:00: Balancing the network:
              Trial  1: relative flow change = 0.829980
              PRV 2 switched from active to open
              Trial  2: relative flow change = 0.629264
              PRV 2 switched from open to active
              FCV 1 switched from active to open
              Trial  3: relative flow change = 0.308291
              Trial  4: relative flow change = 0.073158
              FCV 1 switched from open to active
              Trial  5: relative flow change = 0.278100
              Trial  6: relative flow change = 0.031037
              Trial  7: relative flow change = 0.001261
              Trial  8: relative flow change = 0.000003
     0:00:00: Balanced after 8 trials
     0:00:00: Reservoir R1 is emptying
     0:00:00: Tank T8 is filling at 10.02 ft
   
   
  Hydraulic Status:
  -----------------------------------------------------------------------
     0:00:00: Balancing the network:
              Trial  1: relative flow change = 0.826230
              PRV 2 switched from active to open
              Trial  2: relative flow change = 0.618496
              PRV 2 switched from open to active
              FCV 1 switched from active to open
              Trial  3: relative flow change = 0.315111
              Trial  4: relative flow change = 0.060716
              FCV 1 switched from open to active
              Trial  5: relative flow change = 0.276165
              Trial  6: relative flow change = 0.025269
              Trial  7: relative flow change = 0.000461
              Trial  8: relative flow change = 0.000000
     0:00:00: Balanced after 8 trials
     0:00:00: Reservoir R1 is emptying
     0:00:00: Tank T8 is filling at 9.98 ft
   
   
  Hydraulic Status:
  -----------------------------------------------------------------------
     0:00:00: Balancing the network:
              Trial  1: relative flow change = 0.826255
              PRV 2 switched from active to open
              Trial  2: relative flow change = 0.625958
              PRV 2 switched from open to active
              FCV 1 switched from active to open
              Trial  3: relative flow change = 0.310671
              Trial  4: relative flow change = 0.061366
              FCV 1 switched from open to active
              Trial  5: relative flow change = 0.269278
              Trial  6: relative flow change = 0.030642
              Trial  7: relative flow change = 0.002809
              Trial  8: relative flow change = 0.000016
              Trial  9: relative flow change = 0.000000
     0:00:00: Balanced after 9 trials
     0:00:00: Reservoir R1 is emptying
     0:00:00: Tank T8 is filling at 9.99 ft
   
   
  Hydraulic Status:
  -----------------------------------------------------------------------
     0:00:00: Balancing the network:
              Trial  1: relative flow change = 0.826880
              PRV 2 switched from active to open
              Trial  2: relative flow change = 0.619143
              PRV 2 switched from open to active
              FCV 1 switched from active to open
              Trial  3: relative flow change = 0.307073
              Trial  4: relative flow change = 0.075339
              FCV 1 switched from open to active
              Trial  5: relative flow change = 0.284504
              Trial  6: relative flow change = 0.030963
              Trial  7: relative flow change = 0.001320
              Trial  8: relative flow change = 0.000002
     0:00:00: Balanced after 8 trials
     0:00:00: Reservoir R1 is emptying
     0:00:00: Tank T8 is filling at 10.03 ft
   