  Page 1                                    Sat Aug 17 12:36:09 2019

  ******************************************************************
  *                           E P A N E T                          *
  *                   Hydraulic and Water Quality                  *
  *                   Analysis for Pipe Networks                   *
  *                         Version 2.1                            *
  ******************************************************************
  
  Analysis begun Sat Aug 17 12:36:09 2019

   
  Hydraulic Status:
  -----------------------------------------------------------------------
     0:00:00: Balancing the network:
              Trial  1: relative flow change = 0.966743
              Trial  2: relative flow change = 0.450208
              Trial  3: relative flow change = 0.046609
              Trial  4: relative flow change = 0.001079
              Trial  5: relative flow change = 0.000001
     0:00:00: Balanced after 5 trials
     0:00:00: Reservoir 1 is emptying
     0:00:00: Tank 8 is filling at 1.22 m
   
   
  Hydraulic Status:
  -----------------------------------------------------------------------
     0:00:00: Balancing the network:
              Trial  1: relative flow change = 0.970234
              Trial  2: relative flow change = 0.455386
              Trial  3: relative flow change = 0.046329
              Trial  4: relative flow change = 0.001097
              Trial  5: relative flow change = 0.000001
     0:00:00: Balanced after 5 trials
     0:00:00: Reservoir 1 is emptying
     0:00:00: Tank 8 is filling at 1.21 m
   
   
  Hydraulic Status:
  -----------------------------------------------------------------------
     0:00:00: Balancing the network:
              Trial  1: relative flow change = 0.967685
              Trial  2: relative flow change = 0.453661
              Trial  3: relative flow change = 0.048608
              Trial  4: relative flow change = 0.001180
              Trial  5: relative flow change = 0.000001
     0:00:00: Balanced after 5 trials
     0:00:00: Reservoir 1 is emptying
     0:00:00: Tank 8 is filling at 1.22 m
   
   
  Hydraulic Status:
  -----------------------------------------------------------------------
     0:00:00: Balancing the network:
              Trial  1: relative flow change = 0.964313
              Trial  2: relative flow change = 0.440199
              Trial  3: relative flow change = 0.044327
              Trial  4: relative flow change = 0.000977
              Trial  5: relative flow change = 0.000000
     0:00:00: Balanced after 5 trials
     0:00:00: Reservoir 1 is emptying
     0:00:00: Tank 8 is filling at 1.22 m
   
   
  Hydraulic Status:
  -----------------------------------------------------------------------
     0:00:00: Balancing the network:
              Trial  1: relative flow change = 0.963014
              Trial  2: relative flow change = 0.454098
              Trial  3: relative flow change = 0.049302
              Trial  4: relative flow change = 0.001190
              Trial  5: relative flow change = 0.000001
     0:00:00: Balanced after 5 trials
     0:00:00: Reservoir 1 is emptying
     0:00:00: Tank 8 is filling at 1.22 m
   
   
  Hydraulic Status:
  -----------------------------------------------------------------------
     0:00:00: Balancing the network:
              Trial  1: relative flow change = 0.966837
              Trial  2: relative flow change = 0.450030
              Trial  3: relative flow change = 0.046798
              Trial  4: relative flow change = 0.001087
              Trial  5: relative flow change = 0.000001
     0:00:00: Balanced after 5 trials
     0:00:00: Reservoir 1 is emptying
     0:00:00: Tank 8 is filling at 1.22 m
   
   
  Hydraulic Status:
  -----------------------------------------------------------------------
     0:00:00: Balancing the network:
              Trial  1: relative flow change = 0.970466
              Trial  2: relative flow change = 0.449296
              Trial  3: relative flow change = 0.045510
              Trial  4: relative flow change = 0.001043
              Trial  5: relative flow change = 0.000001
     0:00:00: Balanced after 5 trials
     0:00:00: Reservoir 1 is emptying
     0:00:00: Tank 8 is filling at 1.22 m
   
   
  Hydraulic Status:
  -----------------------------------------------------------------------
     0:00:00: Balancing the network:
              Trial  1: relative flow change = 0.955480
              Trial  2: relative flow change = 0.449293
              Trial  3: relative flow change = 0.047248
              Trial  4: relative flow change = 0.001119
              Trial  5: relative flow change = 0.000001
     0:00:00: Balanced after 5 trials
     0:00:00: Reservoir 1 is emptying
     0:00:00: Tank 8 is filling at 1.22 m
   
   
  Hydraulic Status:
  -----------------------------------------------------------------------
     0:00:00: Balancing the network:
              Trial  1: relative flow change = 0.979572
              Trial  2: relative flow change = 0.444288
              Trial  3: relative flow change = 0.043030
              Trial  4: relative flow change = 0.000936
              Trial  5: relative flow change = 0.000000
     0:00:00: Balanced after 5 trials
     0:00:00: Reservoir 1 is emptying
     0:00:00: Tank 8 is filling at 1.22 m
   
   
  Hydraulic Status:
  -----------------------------------------------------------------------
     0:00:00: Balancing the network:
              Trial  1: relative flow change = 0.963102
              Trial  2: relative flow change = 0.440634
              Trial  3: relative flow change = 0.044504
              Trial  4: relative flow change = 0.000999
              Trial  5: relative flow change = 0.000001
     0:00:00: Balanced after 5 trials
     0:00:00: Reservoir 1 is emptying
     0:00:00: Tank 8 is filling at 1.21 m
   
   
  Hydraulic Status:
  -----------------------------------------------------------------------
     0:00:00: Balancing the network:
              Trial  1: relative flow change = 0.970901
              Trial  2: relative flow change = 0.447645
              Trial  3: relative flow change = 0.045204
              Trial  4: relative flow change = 0.001024
              Trial  5: relative flow change = 0.000001
     0:00:00: Balanced after 5 trials
     0:00:00: Reservoir 1 is emptying
     0:00:00: Tank 8 is filling at 1.21 m
   
   
  Hydraulic Status:
  -----------------------------------------------------------------------
     0:00:00: Balancing the network:
              Trial  1: relative flow change = 0.968460
              Trial  2: relative flow change = 0.443628
              Trial  3: relative flow change = 0.044296
              Trial  4: relative flow change = 0.000997
              Trial  5: relative flow change = 0.000001
     0:00:00: Balanced after 5 trials
     0:00:00: Reservoir 1 is emptying
     0:00:00: Tank 8 is filling at 1.22 m
   
   
  Hydraulic Status:
  -----------------------------------------------------------------------
     0:00:00: Balancing the network:
              Trial  1: relative flow change = 0.980337
              Trial  2: relative flow change = 0.453263
              Trial  3: relative flow change = 0.043501
              Trial  4: relative flow change = 0.000970
              Trial  5: relative flow change = 0.000001
     0:00:00: Balanced after 5 trials
     0:00:00: Reservoir 1 is emptying
     0:00:00: Tank 8 is filling at 1.22 m
   
   
  Hydraulic Status:
  -----------------------------------------------------------------------
     0:00:00: Balancing the network:
              Trial  1: relative flow change = 0.984824
              Trial  2: relative flow change = 0.446314
              Trial  3: relative flow change = 0.043754
              Trial  4: relative flow change = 0.000951
              Trial  5: relative flow change = 0.000000
     0:00:00: Balanced after 5 trials
     0:00:00: Reservoir 1 is emptying
     0:00:00: Tank 8 is filling at 1.22 m
   
   
  Hydraulic Status:
  -----------------------------------------------------------------------
     0:00:00: Balancing the network:
              Trial  1: relative flow change = 0.953267
              Trial  2: relative flow change = 0.447198
              Trial  3: relative flow change = 0.046893
              Trial  4: relative flow change = 0.001125
              Trial  5: relative flow change = 0.000001
     0:00:00: Balanced after 5 trials
     0:00:00: Reservoir 1 is emptying
     0:00:00: Tank 8 is filling at 1.23 m
   
   
  Hydraulic Status:
  -----------------------------------------------------------------------
     0:00:00: Balancing the network:
              Trial  1: relative flow change = 0.966598
              Trial  2: relative flow change = 0.457306
              Trial  3: relative flow change = 0.048575
              Trial  4: relative flow change = 0.001152
              Trial  5: relative flow change = 0.000001
     0:00:00: Balanced after 5 trials
     0:00:00: Reservoir 1 is emptying
     0:00:00: Tank 8 is filling at 1.22 m
   
   
  Hydraulic Status:
  -----------------------------------------------------------------------
     0:00:00: Balancing the network:
              Trial  1: relative flow change = 0.961068
              Trial  2: relative flow change = 0.450657
              Trial  3: relative flow change = 0.047865
              Trial  4: relative flow change = 0.001127
              Trial  5: relative flow change = 0.000001
     0:00:00: Balanced after 5 trials
     0:00:00: Reservoir 1 is emptying
     0:00:00: Tank 8 is filling at 1.23 m
   
   
  Hydraulic Status:
  -----------------------------------------------------------------------
     0:00:00: Balancing the network:
              Trial  1: relative flow change = 0.952830
              Trial  2: relative flow change = 0.446647
              Trial  3: relative flow change = 0.047196
              Trial  4: relative flow change = 0.001119
              Trial  5: relative flow change = 0.000001
     0:00:00: Balanced after 5 trials
     0:00:00: Reservoir 1 is emptying
     0:00:00: Tank 8 is filling at 1.22 m
   
   
  Hydraulic Status:
  -----------------------------------------------------------------------
     0:00:00: Balancing the network:
              Trial  1: relative flow change = 0.948683
              Trial  2: relative flow change = 0.443778
              Trial  3: relative flow change = 0.046414
              Trial  4: relative flow change = 0.001064
              Trial  5: relative flow change = 0.000001
     0:00:00: Balanced after 5 trials
     0:00:00: Reservoir 1 is emptying
     0:00:00: Tank 8 is filling at 1.22 m
   
   
  Hydraulic Status:
  -----------------------------------------------------------------------
     0:00:00: Balancing the network:
              Trial  1: relative flow change = 0.977520
              Trial  2: relative flow change = 0.458961
              Trial  3: relative flow change = 0.047058
              Trial  4: relative flow change = 0.001099
              Trial  5: relative flow change = 0.000001
     0:00:00: Balanced after 5 trials
     0:00:00: Reservoir 1 is emptying
     0:00:00: Tank 8 is filling at 1.22 m
   
   
  Hydraulic Status:
  -----------------------------------------------------------------------
     0:00:00: Balancing the network:
              Trial  1: relative flow change = 0.964244
              Trial  2: relative flow change = 0.458833
              Trial  3: relative flow change = 0.048074
              Trial  4: relative flow change = 0.001167
              Trial  5: relative flow change = 0.000001
     0:00:00: Balanced after 5 trials
     0:00:00: Reservoir 1 is emptying
     0:00:00: Tank 8 is filling at 1.21 m
   
   
  Hydraulic Status:
  -----------------------------------------------------------------------
     0:00:00: Balancing the network:
              Trial  1: relative flow change = 0.974986
              Trial  2: relative flow change = 0.454037
              Trial  3: relative flow change = 0.046429
              Trial  4: relative flow change = 0.001092
              Trial  5: relative flow change = 0.000001
     0:00:00: Balanced after 5 trials
     0:00:00: Reservoir 1 is emptying
     0:00:00: Tank 8 is filling at 1.22 m
   
   
  Hydraulic Status:
  -----------------------------------------------------------------------
     0:00:00: Balancing the network:
              Trial  1: relative flow change = 0.964340
              Trial  2: relative flow change = 0.458231
              Trial  3: relative flow change = 0.048483
              Trial  4: relative flow change = 0.001157
              Trial  5: relative flow change = 0.000001
     0:00:00: Balanced after 5 trials
     0:00:00: Reservoir 1 is emptying
     0:00:00: Tank 8 is filling at 1.22 m
   
   
  Hydraulic Status:
  -----------------------------------------------------------------------
     0:00:00: Balancing the network:
              Trial  1: relative flow change = 0.973570
              Trial  2: relative flow change = 0.452834
              Trial  3: relative flow change = 0.046428
              Trial  4: relative flow change = 0.001083
              Trial  5: relative flow change = 0.000001
     0:00:00: Balanced after 5 trials
     0:00:00: Reservoir 1 is emptying
     0:00:00: Tank 8 is filling at 1.22 m
   
   
  Hydraulic Status:
  -----------------------------------------------------------------------
     0:00:00: Balancing the network:
              Trial  1: relative flow change = 0.953242
              Trial  2: relative flow change = 0.448246
              Trial  3: relative flow change = 0.048737
              Trial  4: relative flow change = 0.001185
              Trial  5: relative flow change = 0.000001
     0:00:00: Balanced after 5 trials
     0:00:00: Reservoir 1 is emptying
     0:00:00: Tank 8 is filling at 1.23 m
   
   
  Hydraulic Status:
  -----------------------------------------------------------------------
     0:00:00: Balancing the network:
              Trial  1: relative flow change = 0.986913
              Trial  2: relative flow change = 0.456319
              Trial  3: relative flow change = 0.045082
              Trial  4: relative flow change = 0.001028
              Trial  5: relative flow change = 0.000001
     0:00:00: Balanced after 5 trials
     0:00:00: Reservoir 1 is emptying
     0:00:00: Tank 8 is filling at 1.23 m
   
   
  Hydraulic Status:
  -----------------------------------------------------------------------
     0:00:00: Balancing the network:
              Trial  1: relative flow change = 0.966653
              Trial  2: relative flow change = 0.445217
              Trial  3: relative flow change = 0.043927
              Trial  4: relative flow change = 0.001000
              Trial  5: relative flow change = 0.000001
     0:00:00: Balanced after 5 trials
     0:00:00: Reservoir 1 is emptying
     0:00:00: Tank 8 is filling at 1.22 m
   
   
  Hydraulic Status:
  -----------------------------------------------------------------------
     0:00:00: Balancing the network:
              Trial  1: relative flow change = 0.950183
              Trial  2: relative flow change = 0.445434
              Trial  3: relative flow change = 0.048557
              Trial  4: relative flow change = 0.001167
              Trial  5: relative flow change = 0.000001
     0:00:00: Balanced after 5 trials
     0:00:00: Reservoir 1 is emptying
     0:00:00: Tank 8 is filling at 1.22 m
   
   
  Hydraulic Status:
  -----------------------------------------------------------------------
     0:00:00: Balancing the network:
              Trial  1: relative flow change = 0.964369
              Trial  2: relative flow change = 0.449105
              Trial  3: relative flow change = 0.047195
              Trial  4: relative flow change = 0.001105
              Trial  5: relative flow change = 0.000001
     0:00:00: Balanced after 5 trials
     0:00:00: Reservoir 1 is emptying
     0:00:00: Tank 8 is filling at 1.23 m
   
   
  Hydraulic Status:
  -----------------------------------------------------------------------
     0:00:00: Balancing the network:
              Trial  1: relative flow change = 0.981027
              Trial  2: relative flow change = 0.442958
              Trial  3: relative flow change = 0.041997
              Trial  4: relative flow change = 0.000913
              Trial  5: relative flow change = 0.000000
     0:00:00: Balanced after 5 trials
     0:00:00: Reservoir 1 is emptying
     0:00:00: Tank 8 is filling at 1.22 m
   
   
  Hydraulic Status:
  -----------------------------------------------------------------------
     0:00:00: Balancing the network:
              Trial  1: relative flow change = 0.967965
              Trial  2: relative flow change = 0.453356
              Trial  3: relative flow change = 0.046707
              Trial  4: relative flow change = 0.001098
              Trial  5: relative flow change = 0.000001
     0:00:00: Balanced after 5 trials
     0:00:00: Reservoir 1 is emptying
     0:00:00: Tank 8 is filling at 1.22 m
   
   
  Hydraulic Status:
  -----------------------------------------------------------------------
     0:00:00: Balancing the network:
              Trial  1: relative flow change = 0.978754
              Trial  2: relative flow change = 0.456200
              Trial  3: relative flow change = 0.044871
              Trial  4: relative flow change = 0.001028
              Trial  5: relative flow change = 0.000001
     0:00:00: Balanced after 5 trials
     0:00:00: Reservoir 1 is emptying
     0:00:00: Tank 8 is filling at 1.21 m
   
   
  Hydraulic Status:
  -----------------------------------------------------------------------
     0:00:00: Balancing the network:
              Trial  1: relative flow change = 0.954230
              Trial  2: relative flow change = 0.450563
              Trial  3: relative flow change = 0.047702
              Trial  4: relative flow change = 0.001143
              Trial  5: relative flow change = 0.000001
     0:00:00: Balanced after 5 trials
     0:00:00: Reservoir 1 is emptying
     0:00:00: Tank 8 is filling at 1.23 m
   
   
  Hydraulic Status:
  -----------------------------------------------------------------------
     0:00:00: Balancing the network:
              Trial  1: relative flow change = 0.951000
              Trial  2: relative flow change = 0.438567
              Trial  3: relative flow change = 0.044751
              Trial  4: relative flow change = 0.001021
              Trial  5: relative flow change = 0.000001
     0:00:00: Balanced after 5 trials
     0:00:00: Reservoir 1 is emptying
     0:00:00: Tank 8 is filling at 1.23 m
   
   
  Hydraulic Status:
  -----------------------------------------------------------------------
     0:00:00: Balancing the network:
              Trial  1: relative flow change = 0.967619
              Trial  2: relative flow change = 0.436104
              Trial  3: relative flow change = 0.041864
              Trial  4: relative flow change = 0.000913
              Trial  5: relative flow change = 0.000000
     0:00:00: Balanced after 5 trials
     0:00:00: Reservoir 1 is emptying
     0:00:00: Tank 8 is filling at 1.22 m
   
   
  Hydraulic Status:
  -----------------------------------------------------------------------
     0:00:00: Balancing the network:
              Trial  1: relative flow change = 0.980405
              Trial  2: relative flow change = 0.448108
              Trial  3: relative flow change = 0.043652
              Trial  4: relative flow change = 0.000974
              Trial  5: relative flow change = 0.000001
     0:00:00: Balanced after 5 trials
     0:00:00: Reservoir 1 is emptying
     0:00:00: Tank 8 is filling at 1.22 m
   
   
  Hydraulic Status:
  -----------------------------------------------------------------------
     0:00:00: Balancing the network:
              Trial  1: relative flow change = 0.986566
              Trial  2: relative flow change = 0.443693
              Trial  3: relative flow change = 0.041802
              Trial  4: relative flow change = 0.000900
              Trial  5: relative flow change = 0.000000
     0:00:00: Balanced after 5 trials
     0:00:00: Reservoir 1 is emptying
     0:00:00: Tank 8 is filling at 1.22 m
   
   
  Hydraulic Status:
  -----------------------------------------------------------------------
     0:00:00: Balancing the network:
              Trial  1: relative flow change = 0.960553
              Trial  2: relative flow change = 0.446487
              Trial  3: relative flow change = 0.046395
              Trial  4: relative flow change = 0.001094
              Trial  5: relative flow change = 0.000001
     0:00:00: Balanced after 5 trials
     0:00:00: Reservoir 1 is emptying
     0:00:00: Tank 8 is filling at 1.22 m
   
   
  Hydraulic Status:
  -----------------------------------------------------------------------
     0:00:00: Balancing the network:
              Trial  1: relative flow change = 0.963571
              Trial  2: relative flow change = 0.444292
              Trial  3: relative flow change = 0.044962
              Trial  4: relative flow change = 0.001019
              Trial  5: relative flow change = 0.000001
     0:00:00: Balanced after 5 trials
     0:00:00: Reservoir 1 is emptying
     0:00:00: Tank 8 is filling at 1.22 m
   
   
  Hydraulic Status:
  -----------------------------------------------------------------------
     0:00:00: Balancing the network:
              Trial  1: relative flow change = 0.951127
              Trial  2: relative flow change = 0.446258
              Trial  3: relative flow change = 0.047906
              Trial  4: relative flow change = 0.001180
              Trial  5: relative flow change = 0.000001
     0:00:00: Balanced after 5 trials
     0:00:00: Reservoir 1 is emptying
     0:00:00: Tank 8 is filling at 1.21 m
   
   
  Hydraulic Status:
  -----------------------------------------------------------------------
     0:00:00: Balancing the network:
              Trial  1: relative flow change = 0.956587
              Trial  2: relative flow change = 0.446608
              Trial  3: relative flow change = 0.046566
              Trial  4: relative flow change = 0.001092
              Trial  5: relative flow change = 0.000001
     0:00:00: Balanced after 5 trials
     0:00:00: Reservoir 1 is emptying
     0:00:00: Tank 8 is filling at 1.22 m
   
   
  Hydraulic Status:
  -----------------------------------------------------------------------
     0:00:00: Balancing the network:
              Trial  1: relative flow change = 0.978753
              Trial  2: relative flow change = 0.455446
              Trial  3: relative flow change = 0.045630
              Trial  4: relative flow change = 0.001043
              Trial  5: relative flow change = 0.000001
     0:00:00: Balanced after 5 trials
     0:00:00: Reservoir 1 is emptying
     0:00:00: Tank 8 is filling at 1.22 m
   
   
  Hydraulic Status:
  -----------------------------------------------------------------------
     0:00:00: Balancing the network:
              Trial  1: relative flow change = 0.989830
              Trial  2: relative flow change = 0.460112
              Trial  3: relative flow change = 0.044492
              Trial  4: relative flow change = 0.001003
              Trial  5: relative flow change = 0.000001
     0:00:00: Balanced after 5 trials
     0:00:00: Reservoir 1 is emptying
     0:00:00: Tank 8 is filling at 1.22 m
   
   
  Hydraulic Status:
  -----------------------------------------------------------------------
     0:00:00: Balancing the network:
              Trial  1: relative flow change = 0.963955
              Trial  2: relative flow change = 0.449436
              Trial  3: relative flow change = 0.046692
              Trial  4: relative flow change = 0.001088
              Trial  5: relative flow change = 0.000001
     0:00:00: Balanced after 5 trials
     0:00:00: Reservoir 1 is emptying
     0:00:00: Tank 8 is filling at 1.22 m
   
   
  Hydraulic Status:
  -----------------------------------------------------------------------
     0:00:00: Balancing the network:
              Trial  1: relative flow change = 0.979545
              Trial  2: relative flow change = 0.447304
              Trial  3: relative flow change = 0.044400
              Trial  4: relative flow change = 0.001019
              Trial  5: relative flow change = 0.000001
     0:00:00: Balanced after 5 trials
     0:00:00: Reservoir 1 is emptying
     0:00:00: Tank 8 is filling at 1.22 m
   
   
  Hydraulic Status:
  -----------------------------------------------------------------------
     0:00:00: Balancing the network:
              Trial  1: relative flow change = 0.962585
              Trial  2: relative flow change = 0.448664
              Trial  3: relative flow change = 0.045587
              Trial  4: relative flow change = 0.001048
              Trial  5: relative flow change = 0.000001
     0:00:00: Balanced after 5 trials
     0:00:00: Reservoir 1 is emptying
     0:00:00: Tank 8 is filling at 1.22 m
   
   
  Hydraulic Status:
  -----------------------------------------------------------------------
     0:00:00: Balancing the network:
              Trial  1: relative flow change = 0.974686
              Trial  2: relative flow change = 0.456112
              Trial  3: relative flow change = 0.047303
              Trial  4: relative flow change = 0.001108
              Trial  5: relative flow change = 0.000001
     0:00:00: Balanced after 5 trials
     0:00:00: Reservoir 1 is emptying
     0:00:00: Tank 8 is filling at 1.22 m
   
   
  Hydraulic Status:
  -----------------------------------------------------------------------
     0:00:00: Balancing the network:
              Trial  1: relative flow change = 0.961147
              Trial  2: relative flow change = 0.437250
              Trial  3: relative flow change = 0.044858
              Trial  4: relative flow change = 0.001004
              Trial  5: relative flow change = 0.000001
     0:00:00: Balanced after 5 trials
     0:00:00: Reservoir 1 is emptying
     0:00:00: Tank 8 is filling at 1.21 m
   
   
  Hydraulic Status:
  -----------------------------------------------------------------------
     0:00:00: Balancing the network:
              Trial  1: relative flow change = 0.951948
              Trial  2: relative flow change = 0.447953
              Trial  3: relative flow change = 0.046671
              Trial  4: relative flow change = 0.001106
              Trial  5: relative flow change = 0.000001
     0:00:00: Balanced after 5 trials
     0:00:00: Reservoir 1 is emptying
     0:00:00: Tank 8 is filling at 1.22 m
   
   
  Hydraulic Status:
  -----------------------------------------------------------------------
     0:00:00: Balancing the network:
              Trial  1: relative flow change = 0.963366
              Trial  2: relative flow change = 0.455437
              Trial  3: relative flow change = 0.048106
              Trial  4: relative flow change = 0.001154
              Trial  5: relative flow change = 0.000001
     0:00:00: Balanced after 5 trials
     0:00:00: Reservoir 1 is emptying
     0:00:00: Tank 8 is filling at 1.22 m
   
   
  Hydraulic Status:
  -----------------------------------------------------------------------
     0:00:00: Balancing the network:
              Trial  1: relative flow change = 0.967974
              Trial  2: relative flow change = 0.446613
              Trial  3: relative flow change = 0.046029
              Trial  4: relative flow change = 0.001101
              Trial  5: relative flow change = 0.000001
     0:00:00: Balanced after 5 trials
     0:00:00: Reservoir 1 is emptying
     0:00:00: Tank 8 is filling at 1.22 m
   
   
  Hydraulic Status:
  -----------------------------------------------------------------------
     0:00:00: Balancing the network:
              Trial  1: relative flow change = 0.974839
              Trial  2: relative flow change = 0.453427
              Trial  3: relative flow change = 0.046012
              Trial  4: relative flow change = 0.001055
              Trial  5: relative flow change = 0.000001
     0:00:00: Balanced after 5 trials
     0:00:00: Reservoir 1 is emptying
     0:00:00: Tank 8 is filling at 1.22 m
   
   
  Hydraulic Status:
  -----------------------------------------------------------------------
     0:00:00: Balancing the network:
              Trial  1: relative flow change = 0.966224
              Trial  2: relative flow change = 0.447392
              Trial  3: relative flow change = 0.045330
              Trial  4: relative flow change = 0.001053
              Trial  5: relative flow change = 0.000001
     0:00:00: Balanced after 5 trials
     0:00:00: Reservoir 1 is emptying
     0:00:00: Tank 8 is filling at 1.22 m
   
   
  Hydraulic Status:
  -----------------------------------------------------------------------
     0:00:00: Balancing the network:
              Trial  1: relative flow change = 0.976238
              Trial  2: relative flow change = 0.449514
              Trial  3: relative flow change = 0.043513
              Trial  4: relative flow change = 0.001023
              Trial  5: relative flow change = 0.000001
     0:00:00: Balanced after 5 trials
     0:00:00: Reservoir 1 is emptying
     0:00:00: Tank 8 is filling at 1.22 m
   
   
  Hydraulic Status:
  -----------------------------------------------------------------------
     0:00:00: Balancing the network:
              Trial  1: relative flow change = 0.958319
              Trial  2: relative flow change = 0.459108
              Trial  3: relative flow change = 0.049348
              Trial  4: relative flow change = 0.001200
              Trial  5: relative flow change = 0.000001
     0:00:00: Balanced after 5 trials
     0:00:00: Reservoir 1 is emptying
     0:00:00: Tank 8 is filling at 1.22 m
   
   
  Hydraulic Status:
  -----------------------------------------------------------------------
     0:00:00: Balancing the network:
              Trial  1: relative flow change = 0.962689
              Trial  2: relative flow change = 0.450181
              Trial  3: relative flow change = 0.047851
              Trial  4: relative flow change = 0.001134
              Trial  5: relative flow change = 0.000001
     0:00:00: Balanced after 5 trials
     0:00:00: Reservoir 1 is emptying
     0:00:00: Tank 8 is filling at 1.22 m
   
   
  Hydraulic Status:
  -----------------------------------------------------------------------
     0:00:00: Balancing the network:
              Trial  1: relative flow change = 0.982971
              Trial  2: relative flow change = 0.453231
              Trial  3: relative flow change = 0.044132
              Trial  4: relative flow change = 0.000997
              Trial  5: relative flow change = 0.000001
     0:00:00: Balanced after 5 trials
     0:00:00: Reservoir 1 is emptying
     0:00:00: Tank 8 is filling at 1.21 m
   
   
  Hydraulic Status:
  -----------------------------------------------------------------------
     0:00:00: Balancing the network:
              Trial  1: relative flow change = 0.961486
              Trial  2: relative flow change = 0.446364
              Trial  3: relative flow change = 0.045290
              Trial  4: relative flow change = 0.001035
              Trial  5: relative flow change = 0.000001
     0:00:00: Balanced after 5 trials
     0:00:00: Reservoir 1 is emptying
     0:00:00: Tank 8 is filling at 1.22 m
   
   
  Hydraulic Status:
  -----------------------------------------------------------------------
     0:00:00: Balancing the network:
              Trial  1: relative flow change = 0.954573
              Trial  2: relative flow change = 0.447787
              Trial  3: relative flow change = 0.046536
              Trial  4: relative flow change = 0.001094
              Trial  5: relative flow change = 0.000001
     0:00:00: Balanced after 5 trials
     0:00:00: Reservoir 1 is emptying
     0:00:00: Tank 8 is filling at 1.22 m
   
   
  Hydraulic Status:
  -----------------------------------------------------------------------
     0:00:00: Balancing the network:
              Trial  1: relative flow change = 0.985668
              Trial  2: relative flow change = 0.451106
              Trial  3: relative flow change = 0.044511
              Trial  4: relative flow change = 0.001006
              Trial  5: relative flow change = 0.000001
     0:00:00: Balanced after 5 trials
     0:00:00: Reservoir 1 is emptying
     0:00:00: Tank 8 is filling at 1.22 m
   
   
  Hydraulic Status:
  -----------------------------------------------------------------------
     0:00:00: Balancing the network:
              Trial  1: relative flow change = 0.980935
              Trial  2: relative flow change = 0.442837
              Trial  3: relative flow change = 0.042146
              Trial  4: relative flow change = 0.000927
              Trial  5: relative flow change = 0.000000
     0:00:00: Balanced after 5 trials
     0:00:00: Reservoir 1 is emptying
     0:00:00: Tank 8 is filling at 1.21 m
   
   
  Hydraulic Status:
  -----------------------------------------------------------------------
     0:00:00: Balancing the network:
              Trial  1: relative flow change = 0.975952
              Trial  2: relative flow change = 0.454284
              Trial  3: relative flow change = 0.046886
              Trial  4: relative flow change = 0.001111
              Trial  5: relative flow change = 0.000001
     0:00:00: Balanced after 5 trials
     0:00:00: Reservoir 1 is emptying
     0:00:00: Tank 8 is filling at 1.22 m
   
   
  Hydraulic Status:
  -----------------------------------------------------------------------
     0:00:00: Balancing the network:
              Trial  1: relative flow change = 0.961221
              Trial  2: relative flow change = 0.448703
              Trial  3: relative flow change = 0.046412
              Trial  4: relative flow change = 0.001073
              Trial  5: relative flow change = 0.000001
     0:00:00: Balanced after 5 trials
     0:00:00: Reservoir 1 is emptying
     0:00:00: Tank 8 is filling at 1.22 m
   
   
  Hydraulic Status:
  -----------------------------------------------------------------------
     0:00:00: Balancing the network:
              Trial  1: relative flow change = 0.967967
              Trial  2: relative flow change = 0.452475
              Trial  3: relative flow change = 0.045697
              Trial  4: relative flow change = 0.001061
              Trial  5: relative flow change = 0.000001
     0:00:00: Balanced after 5 trials
     0:00:00: Reservoir 1 is emptying
     0:00:00: Tank 8 is filling at 1.21 m
   
   
  Hydraulic Status:
  -----------------------------------------------------------------------
     0:00:00: Balancing the network:
              Trial  1: relative flow change = 0.974609
              Trial  2: relative flow change = 0.453256
              Trial  3: relative flow change = 0.045196
              Trial  4: relative flow change = 0.001030
              Trial  5: relative flow change = 0.000001
     0:00:00: Balanced after 5 trials
     0:00:00: Reservoir 1 is emptying
     0:00:00: Tank 8 is filling at 1.22 m
   
   
  Hydraulic Status:
  -----------------------------------------------------------------------
     0:00:00: Balancing the network:
              Trial  1: relative flow change = 0.985168
              Trial  2: relative flow change = 0.461137
              Trial  3: relative flow change = 0.045866
              Trial  4: relative flow change = 0.001056
              Trial  5: relative flow change = 0.000001
     0:00:00: Balanced after 5 trials
     0:00:00: Reservoir 1 is emptying
     0:00:00: Tank 8 is filling at 1.22 m
   
   
  Hydraulic Status:
  -----------------------------------------------------------------------
     0:00:00: Balancing the network:
              Trial  1: relative flow change = 0.963247
              Trial  2: relative flow change = 0.446020
              Trial  3: relative flow change = 0.045919
              Trial  4: relative flow change = 0.001066
              Trial  5: relative flow change = 0.000001
     0:00:00: Balanced after 5 trials
     0:00:00: Reservoir 1 is emptying
     0:00:00: Tank 8 is filling at 1.22 m
   
   
  Hydraulic Status:
  -----------------------------------------------------------------------
     0:00:00: Balancing the network:
              Trial  1: relative flow change = 0.962113
              Trial  2: relative flow change = 0.449471
              Trial  3: relative flow change = 0.046735
              Trial  4: relative flow change = 0.001097
              Trial  5: relative flow change = 0.000001
     0:00:00: Balanced after 5 trials
     0:00:00: Reservoir 1 is emptying
     0:00:00: Tank 8 is filling at 1.23 m
   
   
  Hydraulic Status:
  -----------------------------------------------------------------------
     0:00:00: Balancing the network:
              Trial  1: relative flow change = 0.964565
              Trial  2: relative flow change = 0.452145
              Trial  3: relative flow change = 0.048864
              Trial  4: relative flow change = 0.001155
              Trial  5: relative flow change = 0.000001
     0:00:00: Balanced after 5 trials
     0:00:00: Reservoir 1 is emptying
     0:00:00: Tank 8 is filling at 1.22 m
   
   
  Hydraulic Status:
  -----------------------------------------------------------------------
     0:00:00: Balancing the network:
              Trial  1: relative flow change = 0.956025
              Trial  2: relative flow change = 0.442582
              Trial  3: relative flow change = 0.045900
              Trial  4: relative flow change = 0.001071
              Trial  5: relative flow change = 0.000001
     0:00:00: Balanced after 5 trials
     0:00:00: Reservoir 1 is emptying
     0:00:00: Tank 8 is filling at 1.22 m
   
   
  Hydraulic Status:
  -----------------------------------------------------------------------
     0:00:00: Balancing the network:
              Trial  1: relative flow change = 0.966341
              Trial  2: relative flow change = 0.447179
              Trial  3: relative flow change = 0.043685
              Trial  4: relative flow change = 0.001005
              Trial  5: relative flow change = 0.000001
     0:00:00: Balanced after 5 trials
     0:00:00: Reservoir 1 is emptying
     0:00:00: Tank 8 is filling at 1.22 m
   
   
  Hydraulic Status:
  -----------------------------------------------------------------------
     0:00:00: Balancing the network:
              Trial  1: relative flow change = 0.958587
              Trial  2: relative flow change = 0.458330
              Trial  3: relative flow change = 0.050038
              Trial  4: relative flow change = 0.001225
              Trial  5: relative flow change = 0.000001
     0:00:00: Balanced after 5 trials
     0:00:00: Reservoir 1 is emptying
     0:00:00: Tank 8 is filling at 1.23 m
   
   
  Hydraulic Status:
  -----------------------------------------------------------------------
     0:00:00: Balancing the network:
              Trial  1: relative flow change = 0.963626
              Trial  2: relative flow change = 0.450002
              Trial  3: relative flow change = 0.047751
              Trial  4: relative flow change = 0.001117
              Trial  5: relative flow change = 0.000001
     0:00:00: Balanced after 5 trials
     0:00:00: Reservoir 1 is emptying
     0:00:00: Tank 8 is filling at 1.22 m
   
   
  Hydraulic Status:
  -----------------------------------------------------------------------
     0:00:00: Balancing the network:
              Trial  1: relative flow change = 0.966248
              Trial  2: relative flow change = 0.445281
              Trial  3: relative flow change = 0.043852
              Trial  4: relative flow change = 0.001015
              Trial  5: relative flow change = 0.000001
     0:00:00: Balanced after 5 trials
     0:00:00: Reservoir 1 is emptying
     0:00:00: Tank 8 is filling at 1.22 m
   
   
  Hydraulic Status:
  -----------------------------------------------------------------------
     0:00:00: Balancing the network:
              Trial  1: relative flow change = 0.962336
              Trial  2: relative flow change = 0.444077
              Trial  3: relative flow change = 0.045252
              Trial  4: relative flow change = 0.001026
              Trial  5: relative flow change = 0.000001
     0:00:00: Balanced after 5 trials
     0:00:00: Reservoir 1 is emptying
     0:00:00: Tank 8 is filling at 1.22 m
   
   
  Hydraulic Status:
  -----------------------------------------------------------------------
     0:00:00: Balancing the network:
              Trial  1: relative flow change = 0.974620
              Trial  2: relative flow change = 0.452160
              Trial  3: relative flow change = 0.045090
              Trial  4: relative flow change = 0.001051
              Trial  5: relative flow change = 0.000001
     0:00:00: Balanced after 5 trials
     0:00:00: Reservoir 1 is emptying
     0:00:00: Tank 8 is filling at 1.22 m
   
   
  Hydraulic Status:
  -----------------------------------------------------------------------
     0:00:00: Balancing the network:
              Trial  1: relative flow change = 0.974199
              Trial  2: relative flow change = 0.454373
              Trial  3: relative flow change = 0.045273
              Trial  4: relative flow change = 0.001084
              Trial  5: relative flow change = 0.000001
     0:00:00: Balanced after 5 trials
     0:00:00: Reservoir 1 is emptying
     0:00:00: Tank 8 is filling at 1.21 m
   
   
  Hydraulic Status:
  -----------------------------------------------------------------------
     0:00:00: Balancing the network:
              Trial  1: relative flow change = 0.960346
              Trial  2: relative flow change = 0.450662
              Trial  3: relative flow change = 0.046914
              Trial  4: relative flow change = 0.001105
              Trial  5: relative flow change = 0.000001
     0:00:00: Balanced after 5 trials
     0:00:00: Reservoir 1 is emptying
     0:00:00: Tank 8 is filling at 1.22 m
   
   
  Hydraulic Status:
  -----------------------------------------------------------------------
     0:00:00: Balancing the network:
              Trial  1: relative flow change = 0.965588
              Trial  2: relative flow change = 0.451910
              Trial  3: relative flow change = 0.046605
              Trial  4: relative flow change = 0.001085
              Trial  5: relative flow change = 0.000001
     0:00:00: Balanced after 5 trials
     0:00:00: Reservoir 1 is emptying
     0:00:00: Tank 8 is filling at 1.21 m
   
   
  Hydraulic Status:
  -----------------------------------------------------------------------
     0:00:00: Balancing the network:
              Trial  1: relative flow change = 0.956906
              Trial  2: relative flow change = 0.449092
              Trial  3: relative flow change = 0.047453
              Trial  4: relative flow change = 0.001121
              Trial  5: relative flow change = 0.000001
     0:00:00: Balanced after 5 trials
     0:00:00: Reservoir 1 is emptying
     0:00:00: Tank 8 is filling at 1.22 m
   
   
  Hydraulic Status:
  -----------------------------------------------------------------------
     0:00:00: Balancing the network:
              Trial  1: relative flow change = 0.953839
              Trial  2: relative flow change = 0.447455
              Trial  3: relative flow change = 0.046943
              Trial  4: relative flow change = 0.001098
              Trial  5: relative flow change = 0.000001
     0:00:00: Balanced after 5 trials
     0:00:00: Reservoir 1 is emptying
     0:00:00: Tank 8 is filling at 1.22 m
   
   
  Hydraulic Status:
  -----------------------------------------------------------------------
     0:00:00: Balancing the network:
              Trial  1: relative flow change = 0.979285
              Trial  2: relative flow change = 0.453349
              Trial  3: relative flow change = 0.045401
              Trial  4: relative flow change = 0.001045
              Trial  5: relative flow change = 0.000001
     0:00:00: Balanced after 5 trials
     0:00:00: Reservoir 1 is emptying
     0:00:00: Tank 8 is filling at 1.22 m
   
   
  Hydraulic Status:
  -----------------------------------------------------------------------
     0:00:00: Balancing the network:
              Trial  1: relative flow change = 0.965326
              Trial  2: relative flow change = 0.447112
              Trial  3: relative flow change = 0.044623
              Trial  4: relative flow change = 0.001020
              Trial  5: relative flow change = 0.000001
     0:00:00: Balanced after 5 trials
     0:00:00: Reservoir 1 is emptying
     0:00:00: Tank 8 is filling at 1.22 m
   
   
  Hydraulic Status:
  -----------------------------------------------------------------------
     0:00:00: Balancing the network:
              Trial  1: relative flow change = 0.975974
              Trial  2: relative flow change = 0.454409
              Trial  3: relative flow change = 0.046237
              Trial  4: relative flow change = 0.001069
              Trial  5: relative flow change = 0.000001
     0:00:00: Balanced after 5 trials
     0:00:00: Reservoir 1 is emptying
     0:00:00: Tank 8 is filling at 1.21 m
   
   
  Hydraulic Status:
  -----------------------------------------------------------------------
     0:00:00: Balancing the network:
              Trial  1: relative flow change = 0.966263
              Trial  2: relative flow change = 0.447825
              Trial  3: relative flow change = 0.045601
              Trial  4: relative flow change = 0.001037
              Trial  5: relative flow change = 0.000001
     0:00:00: Balanced after 5 trials
     0:00:00: Reservoir 1 is emptying
     0:00:00: Tank 8 is filling at 1.22 m
   
   
  Hydraulic Status:
  -----------------------------------------------------------------------
     0:00:00: Balancing the network:
              Trial  1: relative flow change = 0.970445
              Trial  2: relative flow change = 0.447442
              Trial  3: relative flow change = 0.045057
              Trial  4: relative flow change = 0.001020
              Trial  5: relative flow change = 0.000001
     0:00:00: Balanced after 5 trials
     0:00:00: Reservoir 1 is emptying
     0:00:00: Tank 8 is filling at 1.22 m
   
   
  Hydraulic Status:
  -----------------------------------------------------------------------
     0:00:00: Balancing the network:
              Trial  1: relative flow change = 0.968988
              Trial  2: relative flow change = 0.452779
              Trial  3: relative flow change = 0.045722
              Trial  4: relative flow change = 0.001058
              Trial  5: relative flow change = 0.000001
     0:00:00: Balanced after 5 trials
     0:00:00: Reservoir 1 is emptying
     0:00:00: Tank 8 is filling at 1.22 m
   
   
  Hydraulic Status:
  -----------------------------------------------------------------------
     0:00:00: Balancing the network:
              Trial  1: relative flow change = 0.990205
              Trial  2: relative flow change = 0.456156
              Trial  3: relative flow change = 0.044506
              Trial  4: relative flow change = 0.001007
              Trial  5: relative flow change = 0.000001
     0:00:00: Balanced after 5 trials
     0:00:00: Reservoir 1 is emptying
     0:00:00: Tank 8 is filling at 1.22 m
   
   
  Hydraulic Status:
  -----------------------------------------------------------------------
     0:00:00: Balancing the network:
              Trial  1: relative flow change = 0.961739
              Trial  2: relative flow change = 0.446875
              Trial  3: relative flow change = 0.045701
              Trial  4: relative flow change = 0.001057
              Trial  5: relative flow change = 0.000001
     0:00:00: Balanced after 5 trials
     0:00:00: Reservoir 1 is emptying
     0:00:00: Tank 8 is filling at 1.22 m
   
   
  Hydraulic Status:
  -----------------------------------------------------------------------
     0:00:00: Balancing the network:
              Trial  1: relative flow change = 0.964084
              Trial  2: relative flow change = 0.453722
              Trial  3: relative flow change = 0.048007
              Trial  4: relative flow change = 0.001151
              Trial  5: relative flow change = 0.000001
     0:00:00: Balanced after 5 trials
     0:00:00: Reservoir 1 is emptying
     0:00:00: Tank 8 is filling at 1.22 m
   
   
  Hydraulic Status:
  -----------------------------------------------------------------------
     0:00:00: Balancing the network:
              Trial  1: relative flow change = 0.960119
              Trial  2: relative flow change = 0.452386
              Trial  3: relative flow change = 0.047231
              Trial  4: relative flow change = 0.001114
              Trial  5: relative flow change = 0.000001
     0:00:00: Balanced after 5 trials
     0:00:00: Reservoir 1 is emptying
     0:00:00: Tank 8 is filling at 1.22 m
   
   
  Hydraulic Status:
  -----------------------------------------------------------------------
     0:00:00: Balancing the network:
              Trial  1: relative flow change = 0.970351
              Trial  2: relative flow change = 0.448581
              Trial  3: relative flow change = 0.045962
              Trial  4: relative flow change = 0.001074
              Trial  5: relative flow change = 0.000001
     0:00:00: Balanced after 5 trials
     0:00:00: Reservoir 1 is emptying
     0:00:00: Tank 8 is filling at 1.22 m
   
   
  Hydraulic Status:
  -----------------------------------------------------------------------
     0:00:00: Balancing the network:
              Trial  1: relative flow change = 0.975972
              Trial  2: relative flow change = 0.457278
              Trial  3: relative flow change = 0.044071
              Trial  4: relative flow change = 0.001011
              Trial  5: relative flow change = 0.000001
     0:00:00: Balanced after 5 trials
     0:00:00: Reservoir 1 is emptying
     0:00:00: Tank 8 is filling at 1.22 m
   
   
  Hydraulic Status:
  -----------------------------------------------------------------------
     0:00:00: Balancing the network:
              Trial  1: relative flow change = 0.959991
              Trial  2: relative flow change = 0.449688
              Trial  3: relative flow change = 0.046121
              Trial  4: relative flow change = 0.001075
              Trial  5: relative flow change = 0.000001
     0:00:00: Balanced after 5 trials
     0:00:00: Reservoir 1 is emptying
     0:00:00: Tank 8 is filling at 1.22 m
   
   
  Hydraulic Status:
  -----------------------------------------------------------------------
     0:00:00: Balancing the network:
              Trial  1: relative flow change = 0.975022
              Trial  2: relative flow change = 0.460871
              Trial  3: relative flow change = 0.046780
              Trial  4: relative flow change = 0.001133
              Trial  5: relative flow change = 0.000001
     0:00:00: Balanced after 5 trials
     0:00:00: Reservoir 1 is emptying
     0:00:00: Tank 8 is filling at 1.22 m
   
   
  Hydraulic Status:
  -----------------------------------------------------------------------
     0:00:00: Balancing the network:
              Trial  1: relative flow change = 0.972673
              Trial  2: relative flow change = 0.452897
              Trial  3: relative flow change = 0.046035
              Trial  4: relative flow change = 0.001108
              Trial  5: relative flow change = 0.000001
     0:00:00: Balanced after 5 trials
     0:00:00: Reservoir 1 is emptying
     0:00:00: Tank 8 is filling at 1.22 m
   
   
  Hydraulic Status:
  -----------------------------------------------------------------------
     0:00:00: Balancing the network:
              Trial  1: relative flow change = 0.958895
              Trial  2: relative flow change = 0.443175
              Trial  3: relative flow change = 0.045881
              Trial  4: relative flow change = 0.001064
              Trial  5: relative flow change = 0.000001
     0:00:00: Balanced after 5 trials
     0:00:00: Reservoir 1 is emptying
     0:00:00: Tank 8 is filling at 1.22 m
   
   
  Hydraulic Status:
  -----------------------------------------------------------------------
     0:00:00: Balancing the network:
              Trial  1: relative flow change = 0.974085
              Trial  2: relative flow change = 0.450058
              Trial  3: relative flow change = 0.045788
              Trial  4: relative flow change = 0.001044
              Trial  5: relative flow change = 0.000001
     0:00:00: Balanced after 5 trials
     0:00:00: Reservoir 1 is emptying
     0:00:00: Tank 8 is filling at 1.22 m
   
   
  Hydraulic Status:
  -----------------------------------------------------------------------
     0:00:00: Balancing the network:
              Trial  1: relative flow change = 0.970202
              Trial  2: relative flow change = 0.457706
              Trial  3: relative flow change = 0.045786
              Trial  4: relative flow change = 0.001084
              Trial  5: relative flow change = 0.000001
     0:00:00: Balanced after 5 trials
     0:00:00: Reservoir 1 is emptying
     0:00:00: Tank 8 is filling at 1.22 m
   
   
  Hydraulic Status:
  -----------------------------------------------------------------------
     0:00:00: Balancing the network:
              Trial  1: relative flow change = 0.955590
              Trial  2: relative flow change = 0.437027
              Trial  3: relative flow change = 0.044726
              Trial  4: relative flow change = 0.001016
              Trial  5: relative flow change = 0.000001
     0:00:00: Balanced after 5 trials
     0:00:00: Reservoir 1 is emptying
     0:00:00: Tank 8 is filling at 1.22 m
   
   
  Hydraulic Status:
  -----------------------------------------------------------------------
     0:00:00: Balancing the network:
              Trial  1: relative flow change = 0.958179
              Trial  2: relative flow change = 0.446389
              Trial  3: relative flow change = 0.046503
              Trial  4: relative flow change = 0.001072
              Trial  5: relative flow change = 0.000001
     0:00:00: Balanced after 5 trials
     0:00:00: Reservoir 1 is emptying
     0:00:00: Tank 8 is filling at 1.21 m
   
   
  Hydraulic Status:
  -----------------------------------------------------------------------
     0:00:00: Balancing the network:
              Trial  1: relative flow change = 0.976051
              Trial  2: relative flow change = 0.459506
              Trial  3: relative flow change = 0.046753
              Trial  4: relative flow change = 0.001102
              Trial  5: relative flow change = 0.000001
     0:00:00: Balanced after 5 trials
     0:00:00: Reservoir 1 is emptying
     0:00:00: Tank 8 is filling at 1.22 m
   
   
  Hydraulic Status:
  -----------------------------------------------------------------------
     0:00:00: Balancing the network:
              Trial  1: relative flow change = 0.961574
              Trial  2: relative flow change = 0.443996
              Trial  3: relative flow change = 0.045720
              Trial  4: relative flow change = 0.001055
              Trial  5: relative flow change = 0.000001
     0:00:00: Balanced after 5 trials
     0:00:00: Reservoir 1 is emptying
     0:00:00: Tank 8 is filling at 1.21 m
   
   
  Hydraulic Status:
  -----------------------------------------------------------------------
     0:00:00: Balancing the network:
              Trial  1: relative flow change = 0.965600
              Trial  2: relative flow change = 0.452389
              Trial  3: relative flow change = 0.045267
              Trial  4: relative flow change = 0.001058
              Trial  5: relative flow change = 0.000001
     0:00:00: Balanced after 5 trials
     0:00:00: Reservoir 1 is emptying
     0:00:00: Tank 8 is filling at 1.22 m
   
   
  Hydraulic Status:
  -----------------------------------------------------------------------
     0:00:00: Balancing the network:
              Trial  1: relative flow change = 0.972192
              Trial  2: relative flow change = 0.454467
              Trial  3: relative flow change = 0.046046
              Trial  4: relative flow change = 0.001055
              Trial  5: relative flow change = 0.000001
     0:00:00: Balanced after 5 trials
     0:00:00: Reservoir 1 is emptying
     0:00:00: Tank 8 is filling at 1.22 m
   
   
  Hydraulic Status:
  -----------------------------------------------------------------------
     0:00:00: Balancing the network:
              Trial  1: relative flow change = 0.952786
              Trial  2: relative flow change = 0.444479
              Trial  3: relative flow change = 0.046588
              Trial  4: relative flow change = 0.001125
              Trial  5: relative flow change = 0.000001
     0:00:00: Balanced after 5 trials
     0:00:00: Reservoir 1 is emptying
     0:00:00: Tank 8 is filling at 1.22 m
   
   
  Hydraulic Status:
  -----------------------------------------------------------------------
     0:00:00: Balancing the network:
              Trial  1: relative flow change = 0.966653
              Trial  2: relative flow change = 0.442289
              Trial  3: relative flow change = 0.045760
              Trial  4: relative flow change = 0.001079
              Trial  5: relative flow change = 0.000001
     0:00:00: Balanced after 5 trials
     0:00:00: Reservoir 1 is emptying
     0:00:00: Tank 8 is filling at 1.22 m
   
   
  Hydraulic Status:
  -----------------------------------------------------------------------
     0:00:00: Balancing the network:
              Trial  1: relative flow change = 0.970876
              Trial  2: relative flow change = 0.450081
              Trial  3: relative flow change = 0.045579
              Trial  4: relative flow change = 0.001038
              Trial  5: relative flow change = 0.000001
     0:00:00: Balanced after 5 trials
     0:00:00: Reservoir 1 is emptying
     0:00:00: Tank 8 is filling at 1.21 m
   
   
  Hydraulic Status:
  -----------------------------------------------------------------------
     0:00:00: Balancing the network:
              Trial  1: relative flow change = 0.968933
              Trial  2: relative flow change = 0.445499
              Trial  3: relative flow change = 0.044255
              Trial  4: relative flow change = 0.001000
              Trial  5: relative flow change = 0.000001
     0:00:00: Balanced after 5 trials
     0:00:00: Reservoir 1 is emptying
     0:00:00: Tank 8 is filling at 1.23 m
   
   
  Hydraulic Status:
  -----------------------------------------------------------------------
     0:00:00: Balancing the network:
              Trial  1: relative flow change = 0.959224
              Trial  2: relative flow change = 0.442206
              Trial  3: relative flow change = 0.046767
              Trial  4: relative flow change = 0.001074
              Trial  5: relative flow change = 0.000001
     0:00:00: Balanced after 5 trials
     0:00:00: Reservoir 1 is emptying
     0:00:00: Tank 8 is filling at 1.21 m
   
   
  Hydraulic Status:
  -----------------------------------------------------------------------
     0:00:00: Balancing the network:
              Trial  1: relative flow change = 0.959687
              Trial  2: relative flow change = 0.445505
              Trial  3: relative flow change = 0.044851
              Trial  4: relative flow change = 0.001035
              Trial  5: relative flow change = 0.000001
     0:00:00: Balanced after 5 trials
     0:00:00: Reservoir 1 is emptying
     0:00:00: Tank 8 is filling at 1.22 m
   
   
  Hydraulic Status:
  -----------------------------------------------------------------------
     0:00:00: Balancing the network:
              Trial  1: relative flow change = 0.966691
              Trial  2: relative flow change = 0.444841
              Trial  3: relative flow change = 0.044555
              Trial  4: relative flow change = 0.001050
              Trial  5: relative flow change = 0.000001
     0:00:00: Balanced after 5 trials
     0:00:00: Reservoir 1 is emptying
     0:00:00: Tank 8 is filling at 1.22 m
   
   
  Hydraulic Status:
  -----------------------------------------------------------------------
     0:00:00: Balancing the network:
              Trial  1: relative flow change = 0.964144
              Trial  2: relative flow change = 0.448574
              Trial  3: relative flow change = 0.046873
              Trial  4: relative flow change = 0.001112
              Trial  5: relative flow change = 0.000001
     0:00:00: Balanced after 5 trials
     0:00:00: Reservoir 1 is emptying
     0:00:00: Tank 8 is filling at 1.22 m
   
   
  Hydraulic Status:
  -----------------------------------------------------------------------
     0:00:00: Balancing the network:
              Trial  1: relative flow change = 0.978046
              Trial  2: relative flow change = 0.461051
              Trial  3: relative flow change = 0.047375
              Trial  4: relative flow change = 0.001134
              Trial  5: relative flow change = 0.000001
     0:00:00: Balanced after 5 trials
     0:00:00: Reservoir 1 is emptying
     0:00:00: Tank 8 is filling at 1.22 m
   
   
  Hydraulic Status:
  -----------------------------------------------------------------------
     0:00:00: Balancing the network:
              Trial  1: relative flow change = 0.947921
              Trial  2: relative flow change = 0.444058
              Trial  3: relative flow change = 0.048423
              Trial  4: relative flow change = 0.001154
              Trial  5: relative flow change = 0.000001
     0:00:00: Balanced after 5 trials
     0:00:00: Reservoir 1 is emptying
     0:00:00: Tank 8 is filling at 1.22 m
   
   
  Hydraulic Status:
  -----------------------------------------------------------------------
     0:00:00: Balancing the network:
              Trial  1: relative flow change = 0.946422
              Trial  2: relative flow change = 0.439213
              Trial  3: relative flow change = 0.046869
              Trial  4: relative flow change = 0.001082
              Trial  5: relative flow change = 0.000001
     0:00:00: Balanced after 5 trials
     0:00:00: Reservoir 1 is emptying
     0:00:00: Tank 8 is filling at 1.22 m
   
   
  Hydraulic Status:
  -----------------------------------------------------------------------
     0:00:00: Balancing the network:
              Trial  1: relative flow change = 0.957307
              Trial  2: relative flow change = 0.449389
              Trial  3: relative flow change = 0.047170
              Trial  4: relative flow change = 0.001108
              Trial  5: relative flow change = 0.000001
     0:00:00: Balanced after 5 trials
     0:00:00: Reservoir 1 is emptying
     0:00:00: Tank 8 is filling at 1.22 m
   
   
  Hydraulic Status:
  -----------------------------------------------------------------------
     0:00:00: Balancing the network:
              Trial  1: relative flow change = 0.969729
              Trial  2: relative flow change = 0.444065
              Trial  3: relative flow change = 0.043500
              Trial  4: relative flow change = 0.000978
              Trial  5: relative flow change = 0.000001
     0:00:00: Balanced after 5 trials
     0:00:00: Reservoir 1 is emptying
     0:00:00: Tank 8 is filling at 1.22 m
   
   
  Hydraulic Status:
  -----------------------------------------------------------------------
     0:00:00: Balancing the network:
              Trial  1: relative flow change = 0.964166
              Trial  2: relative flow change = 0.441046
              Trial  3: relative flow change = 0.044821
              Trial  4: relative flow change = 0.001029
              Trial  5: relative flow change = 0.000001
     0:00:00: Balanced after 5 trials
     0:00:00: Reservoir 1 is emptying
     0:00:00: Tank 8 is filling at 1.22 m
   
   
  Hydraulic Status:
  -----------------------------------------------------------------------
     0:00:00: Balancing the network:
              Trial  1: relative flow change = 0.968800
              Trial  2: relative flow change = 0.450789
              Trial  3: relative flow change = 0.046069
              Trial  4: relative flow change = 0.001058
              Trial  5: relative flow change = 0.000001
     0:00:00: Balanced after 5 trials
     0:00:00: Reservoir 1 is emptying
     0:00:00: Tank 8 is filling at 1.22 m
   
   
  Hydraulic Status:
  -----------------------------------------------------------------------
     0:00:00: Balancing the network:
              Trial  1: relative flow change = 0.965748
              Trial  2: relative flow change = 0.446237
              Trial  3: relative flow change = 0.045884
              Trial  4: relative flow change = 0.001062
              Trial  5: relative flow change = 0.000001
     0:00:00: Balanced after 5 trials
     0:00:00: Reservoir 1 is emptying
     0:00:00: Tank 8 is filling at 1.22 m
   
   
  Hydraulic Status:
  -----------------------------------------------------------------------
     0:00:00: Balancing the network:
              Trial  1: relative flow change = 0.960753
              Trial  2: relative flow change = 0.450397
              Trial  3: relative flow change = 0.046006
              Trial  4: relative flow change = 0.001071
              Trial  5: relative flow change = 0.000001
     0:00:00: Balanced after 5 trials
     0:00:00: Reservoir 1 is emptying
     0:00:00: Tank 8 is filling at 1.22 m
   
   
  Hydraulic Status:
  -----------------------------------------------------------------------
     0:00:00: Balancing the network:
              Trial  1: relative flow change = 0.963951
              Trial  2: relative flow change = 0.452428
              Trial  3: relative flow change = 0.046469
              Trial  4: relative flow change = 0.001083
              Trial  5: relative flow change = 0.000001
     0:00:00: Balanced after 5 trials
     0:00:00: Reservoir 1 is emptying
     0:00:00: Tank 8 is filling at 1.22 m
   
   
  Hydraulic Status:
  -----------------------------------------------------------------------
     0:00:00: Balancing the network:
              Trial  1: relative flow change = 0.950026
              Trial  2: relative flow change = 0.434083
              Trial  3: relative flow change = 0.044743
              Trial  4: relative flow change = 0.001013
              Trial  5: relative flow change = 0.000001
     0:00:00: Balanced after 5 trials
     0:00:00: Reservoir 1 is emptying
     0:00:00: Tank 8 is filling at 1.22 m
   
   
  Hydraulic Status:
  -----------------------------------------------------------------------
     0:00:00: Balancing the network:
              Trial  1: relative flow change = 0.980414
              Trial  2: relative flow change = 0.453656
              Trial  3: relative flow change = 0.044270
              Trial  4: relative flow change = 0.000984
              Trial  5: relative flow change = 0.000001
     0:00:00: Balanced after 5 trials
     0:00:00: Reservoir 1 is emptying
     0:00:00: Tank 8 is filling at 1.22 m
   
   
  Hydraulic Status:
  -----------------------------------------------------------------------
     0:00:00: Balancing the network:
              Trial  1: relative flow change = 0.971361
              Trial  2: relative flow change = 0.449431
              Trial  3: relative flow change = 0.046067
              Trial  4: relative flow change = 0.001055
              Trial  5: relative flow change = 0.000001
     0:00:00: Balanced after 5 trials
     0:00:00: Reservoir 1 is emptying
     0:00:00: Tank 8 is filling at 1.21 m
   
   
  Hydraulic Status:
  -----------------------------------------------------------------------
     0:00:00: Balancing the network:
              Trial  1: relative flow change = 0.959579
              Trial  2: relative flow change = 0.446199
              Trial  3: relative flow change = 0.045664
              Trial  4: relative flow change = 0.001057
              Trial  5: relative flow change = 0.000001
     0:00:00: Balanced after 5 trials
     0:00:00: Reservoir 1 is emptying
     0:00:00: Tank 8 is filling at 1.22 m
   
   
  Hydraulic Status:
  -----------------------------------------------------------------------
     0:00:00: Balancing the network:
              Trial  1: relative flow change = 0.989766
              Trial  2: relative flow change = 0.459257
              Trial  3: relative flow change = 0.046125
              Trial  4: relative flow change = 0.001067
              Trial  5: relative flow change = 0.000001
     0:00:00: Balanced after 5 trials
     0:00:00: Reservoir 1 is emptying
     0:00:00: Tank 8 is filling at 1.22 m
   
   
  Hydraulic Status:
  -----------------------------------------------------------------------
     0:00:00: Balancing the network:
              Trial  1: relative flow change = 0.950577
              Trial  2: relative flow change = 0.440656
              Trial  3: relative flow change = 0.043874
              Trial  4: relative flow change = 0.000992
              Trial  5: relative flow change = 0.000001
     0:00:00: Balanced after 5 trials
     0:00:00: Reservoir 1 is emptying
     0:00:00: Tank 8 is filling at 1.23 m
   
   
  Hydraulic Status:
  -----------------------------------------------------------------------
     0:00:00: Balancing the network:
              Trial  1: relative flow change = 0.973819
              Trial  2: relative flow change = 0.454172
              Trial  3: relative flow change = 0.045564
              Trial  4: relative flow change = 0.001075
              Trial  5: relative flow change = 0.000001
     0:00:00: Balanced after 5 trials
     0:00:00: Reservoir 1 is emptying
     0:00:00: Tank 8 is filling at 1.22 m
   
   
  Hydraulic Status:
  -----------------------------------------------------------------------
     0:00:00: Balancing the network:
              Trial  1: relative flow change = 0.959164
              Trial  2: relative flow change = 0.443886
              Trial  3: relative flow change = 0.045005
              Trial  4: relative flow change = 0.001024
              Trial  5: relative flow change = 0.000001
     0:00:00: Balanced after 5 trials
     0:00:00: Reservoir 1 is emptying
     0:00:00: Tank 8 is filling at 1.22 m
   
   
  Hydraulic Status:
  -----------------------------------------------------------------------
     0:00:00: Balancing the network:
              Trial  1: relative flow change = 0.965462
              Trial  2: relative flow change = 0.448643
              Trial  3: relative flow change = 0.046314
              Trial  4: relative flow change = 0.001077
              Trial  5: relative flow change = 0.000001
     0:00:00: Balanced after 5 trials
     0:00:00: Reservoir 1 is emptying
     0:00:00: Tank 8 is filling at 1.22 m
   
   
  Hydraulic Status:
  -----------------------------------------------------------------------
     0:00:00: Balancing the network:
              Trial  1: relative flow change = 0.982909
              Trial  2: relative flow change = 0.460680
              Trial  3: relative flow change = 0.047157
              Trial  4: relative flow change = 0.001109
              Trial  5: relative flow change = 0.000001
     0:00:00: Balanced after 5 trials
     0:00:00: Reservoir 1 is emptying
     0:00:00: Tank 8 is filling at 1.21 m
   
   
  Hydraulic Status:
  -----------------------------------------------------------------------
     0:00:00: Balancing the network:
              Trial  1: relative flow change = 0.949013
              Trial  2: relative flow change = 0.446160
              Trial  3: relative flow change = 0.047660
              Trial  4: relative flow change = 0.001152
              Trial  5: relative flow change = 0.000001
     0:00:00: Balanced after 5 trials
     0:00:00: Reservoir 1 is emptying
     0:00:00: Tank 8 is filling at 1.21 m
   
   
  Hydraulic Status:
  -----------------------------------------------------------------------
     0:00:00: Balancing the network:
              Trial  1: relative flow change = 0.975778
              Trial  2: relative flow change = 0.462618
              Trial  3: relative flow change = 0.048299
              Trial  4: relative flow change = 0.001154
              Trial  5: relative flow change = 0.000001
     0:00:00: Balanced after 5 trials
     0:00:00: Reservoir 1 is emptying
     0:00:00: Tank 8 is filling at 1.22 m
   
   
  Hydraulic Status:
  -----------------------------------------------------------------------
     0:00:00: Balancing the network:
              Trial  1: relative flow change = 0.957702
              Trial  2: relative flow change = 0.444431
              Trial  3: relative flow change = 0.045184
              Trial  4: relative flow change = 0.001052
              Trial  5: relative flow change = 0.000001
     0:00:00: Balanced after 5 trials
     0:00:00: Reservoir 1 is emptying
     0:00:00: Tank 8 is filling at 1.22 m
   
   
  Hydraulic Status:
  -----------------------------------------------------------------------
     0:00:00: Balancing the network:
              Trial  1: relative flow change = 0.971156
              Trial  2: relative flow change = 0.442658
              Trial  3: relative flow change = 0.043075
              Trial  4: relative flow change = 0.000969
              Trial  5: relative flow change = 0.000001
     0:00:00: Balanced after 5 trials
     0:00:00: Reservoir 1 is emptying
     0:00:00: Tank 8 is filling at 1.21 m
   
   
  Hydraulic Status:
  -----------------------------------------------------------------------
     0:00:00: Balancing the network:
              Trial  1: relative flow change = 0.978034
              Trial  2: relative flow change = 0.451628
              Trial  3: relative flow change = 0.045454
              Trial  4: relative flow change = 0.001033
              Trial  5: relative flow change = 0.000001
     0:00:00: Balanced after 5 trials
     0:00:00: Reservoir 1 is emptying
     0:00:00: Tank 8 is filling at 1.22 m
   
   
  Hydraulic Status:
  -----------------------------------------------------------------------
     0:00:00: Balancing the network:
              Trial  1: relative flow change = 0.970435
              Trial  2: relative flow change = 0.467590
              Trial  3: relative flow change = 0.051457
              Trial  4: relative flow change = 0.001322
              Trial  5: relative flow change = 0.000001
     0:00:00: Balanced after 5 trials
     0:00:00: Reservoir 1 is emptying
     0:00:00: Tank 8 is filling at 1.22 m
   
   
  Hydraulic Status:
  -----------------------------------------------------------------------
     0:00:00: Balancing the network:
              Trial  1: relative flow change = 0.960656
              Trial  2: relative flow change = 0.435855
              Trial  3: relative flow change = 0.043290
              Trial  4: relative flow change = 0.001003
              Trial  5: relative flow change = 0.000001
     0:00:00: Balanced after 5 trials
     0:00:00: Reservoir 1 is emptying
     0:00:00: Tank 8 is filling at 1.21 m
   
   
  Hydraulic Status:
  -----------------------------------------------------------------------
     0:00:00: Balancing the network:
              Trial  1: relative flow change = 0.967527
              Trial  2: relative flow change = 0.446491
              Trial  3: relative flow change = 0.045679
              Trial  4: relative flow change = 0.001077
              Trial  5: relative flow change = 0.000001
     0:00:00: Balanced after 5 trials
     0:00:00: Reservoir 1 is emptying
     0:00:00: Tank 8 is filling at 1.21 m
   
   
  Hydraulic Status:
  -----------------------------------------------------------------------
     0:00:00: Balancing the network:
              Trial  1: relative flow change = 0.974670
              Trial  2: relative flow change = 0.451815
              Trial  3: relative flow change = 0.047445
              Trial  4: relative flow change = 0.001131
              Trial  5: relative flow change = 0.000001
     0:00:00: Balanced after 5 trials
     0:00:00: Reservoir 1 is emptying
     0:00:00: Tank 8 is filling at 1.22 m
   
   
  Hydraulic Status:
  -----------------------------------------------------------------------
     0:00:00: Balancing the network:
              Trial  1: relative flow change = 0.960453
              Trial  2: relative flow change = 0.447260
              Trial  3: relative flow change = 0.048100
              Trial  4: relative flow change = 0.001143
              Trial  5: relative flow change = 0.000001
     0:00:00: Balanced after 5 trials
     0:00:00: Reservoir 1 is emptying
     0:00:00: Tank 8 is filling at 1.22 m
   
   
  Hydraulic Status:
  -----------------------------------------------------------------------
     0:00:00: Balancing the network:
              Trial  1: relative flow change = 0.966806
              Trial  2: relative flow change = 0.445187
              Trial  3: relative flow change = 0.046676
              Trial  4: relative flow change = 0.001075
              Trial  5: relative flow change = 0.000001
     0:00:00: Balanced after 5 trials
     0:00:00: Reservoir 1 is emptying
     0:00:00: Tank 8 is filling at 1.21 m
   
   
  Hydraulic Status:
  -----------------------------------------------------------------------
     0:00:00: Balancing the network:
              Trial  1: relative flow change = 0.963909
              Trial  2: relative flow change = 0.448245
              Trial  3: relative flow change = 0.046249
              Trial  4: relative flow change = 0.001068
              Trial  5: relative flow change = 0.000001
     0:00:00: Balanced after 5 trials
     0:00:00: Reservoir 1 is emptying
     0:00:00: Tank 8 is filling at 1.22 m
   
   
  Hydraulic Status:
  -----------------------------------------------------------------------
     0:00:00: Balancing the network:
              Trial  1: relative flow change = 0.966572
              Trial  2: relative flow change = 0.459040
              Trial  3: relative flow change = 0.047626
              Trial  4: relative flow change = 0.001146
              Trial  5: relative flow change = 0.000001
     0:00:00: Balanced after 5 trials
     0:00:00: Reservoir 1 is emptying
     0:00:00: Tank 8 is filling at 1.22 m
   
   
  Hydraulic Status:
  -----------------------------------------------------------------------
     0:00:00: Balancing the network:
              Trial  1: relative flow change = 0.962035
              Trial  2: relative flow change = 0.449311
              Trial  3: relative flow change = 0.047953
              Trial  4: relative flow change = 0.001169
              Trial  5: relative flow change = 0.000001
     0:00:00: Balanced after 5 trials
     0:00:00: Reservoir 1 is emptying
     0:00:00: Tank 8 is filling at 1.23 m
   
   
  Hydraulic Status:
  -----------------------------------------------------------------------
     0:00:00: Balancing the network:
              Trial  1: relative flow change = 0.955799
              Trial  2: relative flow change = 0.449746
              Trial  3: relative flow change = 0.048134
              Trial  4: relative flow change = 0.001136
              Trial  5: relative flow change = 0.000001
     0:00:00: Balanced after 5 trials
     0:00:00: Reservoir 1 is emptying
[...]
     0:00:00: Balanced after 5 trials
     0:00:00: Reservoir 1 is emptying
     0:00:00: Tank 8 is filling at 1.22 m
   
   
  Hydraulic Status:
  -----------------------------------------------------------------------
     0:00:00: Balancing the network:
              Trial  1: relative flow change = 0.961555
              Trial  2: relative flow change = 0.437437
              Trial  3: relative flow change = 0.043705
              Trial  4: relative flow change = 0.000967
              Trial  5: relative flow change = 0.000001
     0:00:00: Balanced after 5 trials
     0:00:00: Reservoir 1 is emptying
     0:00:00: Tank 8 is filling at 1.23 m
   
   
  Hydraulic Status:
  -----------------------------------------------------------------------
     0:00:00: Balancing the network:
              Trial  1: relative flow change = 0.988443
              Trial  2: relative flow change = 0.455109
              Trial  3: relative flow change = 0.044540
              Trial  4: relative flow change = 0.001006
              Trial  5: relative flow change = 0.000001
     0:00:00: Balanced after 5 trials
     0:00:00: Reservoir 1 is emptying
     0:00:00: Tank 8 is filling at 1.22 m
   
   
  Hydraulic Status:
  -----------------------------------------------------------------------
     0:00:00: Balancing the network:
              Trial  1: relative flow change = 0.975447
              Trial  2: relative flow change = 0.451033
              Trial  3: relative flow change = 0.045128
              Trial  4: relative flow change = 0.001024
              Trial  5: relative flow change = 0.000001
     0:00:00: Balanced after 5 trials
     0:00:00: Reservoir 1 is emptying
     0:00:00: Tank 8 is filling at 1.22 m
   
   
  Hydraulic Status:
  -----------------------------------------------------------------------
     0:00:00: Balancing the network:
              Trial  1: relative flow change = 0.961955
              Trial  2: relative flow change = 0.450649
              Trial  3: relative flow change = 0.046752
              Trial  4: relative flow change = 0.001091
              Trial  5: relative flow change = 0.000001
     0:00:00: Balanced after 5 trials
     0:00:00: Reservoir 1 is emptying
     0:00:00: Tank 8 is filling at 1.22 m
   
   
  Hydraulic Status:
  -----------------------------------------------------------------------
     0:00:00: Balancing the network:
              Trial  1: relative flow change = 0.973557
              Trial  2: relative flow change = 0.456971
              Trial  3: relative flow change = 0.047652
              Trial  4: relative flow change = 0.001127
              Trial  5: relative flow change = 0.000001
     0:00:00: Balanced after 5 trials
     0:00:00: Reservoir 1 is emptying
     0:00:00: Tank 8 is filling at 1.22 m
   
   
  Hydraulic Status:
  -----------------------------------------------------------------------
     0:00:00: Balancing the network:
              Trial  1: relative flow change = 0.993587
              Trial  2: relative flow change = 0.466393
              Trial  3: relative flow change = 0.045703
              Trial  4: relative flow change = 0.001062
              Trial  5: relative flow change = 0.000001
     0:00:00: Balanced after 5 trials
     0:00:00: Reservoir 1 is emptying
     0:00:00: Tank 8 is filling at 1.21 m
   
   
  Hydraulic Status:
  -----------------------------------------------------------------------
     0:00:00: Balancing the network:
              Trial  1: relative flow change = 0.965211
              Trial  2: relative flow change = 0.445887
              Trial  3: relative flow change = 0.045628
              Trial  4: relative flow change = 0.001056
              Trial  5: relative flow change = 0.000001
     0:00:00: Balanced after 5 trials
     0:00:00: Reservoir 1 is emptying
     0:00:00: Tank 8 is filling at 1.22 m
   
   
  Hydraulic Status:
  -----------------------------------------------------------------------
     0:00:00: Balancing the network:
              Trial  1: relative flow change = 0.965300
              Trial  2: relative flow change = 0.449545
              Trial  3: relative flow change = 0.044194
              Trial  4: relative flow change = 0.001010
              Trial  5: relative flow change = 0.000001
     0:00:00: Balanced after 5 trials
     0:00:00: Reservoir 1 is emptying
     0:00:00: Tank 8 is filling at 1.22 m
   
   
  Hydraulic Status:
  -----------------------------------------------------------------------
     0:00:00: Balancing the network:
              Trial  1: relative flow change = 0.962969
              Trial  2: relative flow change = 0.457025
              Trial  3: relative flow change = 0.048780
              Trial  4: relative flow change = 0.001175
              Trial  5: relative flow change = 0.000001
     0:00:00: Balanced after 5 trials
     0:00:00: Reservoir 1 is emptying
     0:00:00: Tank 8 is filling at 1.23 m
   
   
  Hydraulic Status:
  -----------------------------------------------------------------------
     0:00:00: Balancing the network:
              Trial  1: relative flow change = 0.963106
              Trial  2: relative flow change = 0.449675
              Trial  3: relative flow change = 0.046349
              Trial  4: relative flow change = 0.001081
              Trial  5: relative flow change = 0.000001
     0:00:00: Balanced after 5 trials
     0:00:00: Reservoir 1 is emptying
     0:00:00: Tank 8 is filling at 1.22 m
   
   
  Hydraulic Status:
  -----------------------------------------------------------------------
     0:00:00: Balancing the network:
              Trial  1: relative flow change = 0.962109
              Trial  2: relative flow change = 0.450787
              Trial  3: relative flow change = 0.046584
              Trial  4: relative flow change = 0.001143
              Trial  5: relative flow change = 0.000001
     0:00:00: Balanced after 5 trials
     0:00:00: Reservoir 1 is emptying
     0:00:00: Tank 8 is filling at 1.23 m
   
   
  Hydraulic Status:
  -----------------------------------------------------------------------
     0:00:00: Balancing the network:
              Trial  1: relative flow change = 0.959562
              Trial  2: relative flow change = 0.451741
              Trial  3: relative flow change = 0.047688
              Trial  4: relative flow change = 0.001131
              Trial  5: relative flow change = 0.000001
     0:00:00: Balanced after 5 trials
     0:00:00: Reservoir 1 is emptying
     0:00:00: Tank 8 is filling at 1.22 m
   
   
  Hydraulic Status:
  -----------------------------------------------------------------------
     0:00:00: Balancing the network:
              Trial  1: relative flow change = 0.963305
              Trial  2: relative flow change = 0.448307
              Trial  3: relative flow change = 0.045098
              Trial  4: relative flow change = 0.001038
              Trial  5: relative flow change = 0.000001
     0:00:00: Balanced after 5 trials
     0:00:00: Reservoir 1 is emptying
     0:00:00: Tank 8 is filling at 1.22 m
   
   
  Hydraulic Status:
  -----------------------------------------------------------------------
     0:00:00: Balancing the network:
              Trial  1: relative flow change = 0.954456
              Trial  2: relative flow change = 0.451953
              Trial  3: relative flow change = 0.048988
              Trial  4: relative flow change = 0.001179
              Trial  5: relative flow change = 0.000001
     0:00:00: Balanced after 5 trials
     0:00:00: Reservoir 1 is emptying
     0:00:00: Tank 8 is filling at 1.22 m
   
   
  Hydraulic Status:
  -----------------------------------------------------------------------
     0:00:00: Balancing the network:
              Trial  1: relative flow change = 0.961441
              Trial  2: relative flow change = 0.454969
              Trial  3: relative flow change = 0.047223
              Trial  4: relative flow change = 0.001102
              Trial  5: relative flow change = 0.000001
     0:00:00: Balanced after 5 trials
     0:00:00: Reservoir 1 is emptying
     0:00:00: Tank 8 is filling at 1.22 m
   
   
  Hydraulic Status:
  -----------------------------------------------------------------------
     0:00:00: Balancing the network:
              Trial  1: relative flow change = 0.960336
              Trial  2: relative flow change = 0.446123
              Trial  3: relative flow change = 0.045897
              Trial  4: relative flow change = 0.001055
              Trial  5: relative flow change = 0.000001
     0:00:00: Balanced after 5 trials
     0:00:00: Reservoir 1 is emptying
     0:00:00: Tank 8 is filling at 1.22 m
   
   
  Hydraulic Status:
  -----------------------------------------------------------------------
     0:00:00: Balancing the network:
              Trial  1: relative flow change = 0.977749
              Trial  2: relative flow change = 0.447530
              Trial  3: relative flow change = 0.043452
              Trial  4: relative flow change = 0.000960
              Trial  5: relative flow change = 0.000000
     0:00:00: Balanced after 5 trials
     0:00:00: Reservoir 1 is emptying
     0:00:00: Tank 8 is filling at 1.22 m
   
   
  Hydraulic Status:
  -----------------------------------------------------------------------
     0:00:00: Balancing the network:
              Trial  1: relative flow change = 0.976535
              Trial  2: relative flow change = 0.456611
              Trial  3: relative flow change = 0.046526
              Trial  4: relative flow change = 0.001088
              Trial  5: relative flow change = 0.000001
     0:00:00: Balanced after 5 trials
     0:00:00: Reservoir 1 is emptying
     0:00:00: Tank 8 is filling at 1.22 m
   
   
  Hydraulic Status:
  -----------------------------------------------------------------------
     0:00:00: Balancing the network:
              Trial  1: relative flow change = 0.979384
              Trial  2: relative flow change = 0.446207
              Trial  3: relative flow change = 0.041907
              Trial  4: relative flow change = 0.000958
              Trial  5: relative flow change = 0.000001
     0:00:00: Balanced after 5 trials
     0:00:00: Reservoir 1 is emptying
     0:00:00: Tank 8 is filling at 1.22 m
   
   
  Hydraulic Status:
  -----------------------------------------------------------------------
     0:00:00: Balancing the network:
              Trial  1: relative flow change = 0.978126
              Trial  2: relative flow change = 0.441480
              Trial  3: relative flow change = 0.042498
              Trial  4: relative flow change = 0.000913
              Trial  5: relative flow change = 0.000000
     0:00:00: Balanced after 5 trials
     0:00:00: Reservoir 1 is emptying
     0:00:00: Tank 8 is filling at 1.21 m
   
   
  Hydraulic Status:
  -----------------------------------------------------------------------
     0:00:00: Balancing the network:
              Trial  1: relative flow change = 0.956196
              Trial  2: relative flow change = 0.443634
              Trial  3: relative flow change = 0.045407
              Trial  4: relative flow change = 0.001073
              Trial  5: relative flow change = 0.000001
     0:00:00: Balanced after 5 trials
     0:00:00: Reservoir 1 is emptying
     0:00:00: Tank 8 is filling at 1.21 m
   
   
  Hydraulic Status:
  -----------------------------------------------------------------------
     0:00:00: Balancing the network:
              Trial  1: relative flow change = 0.967213
              Trial  2: relative flow change = 0.450577
              Trial  3: relative flow change = 0.046272
              Trial  4: relative flow change = 0.001075
              Trial  5: relative flow change = 0.000001
     0:00:00: Balanced after 5 trials
     0:00:00: Reservoir 1 is emptying
     0:00:00: Tank 8 is filling at 1.22 m
   
   
  Hydraulic Status:
  -----------------------------------------------------------------------
     0:00:00: Balancing the network:
              Trial  1: relative flow change = 0.968406
              Trial  2: relative flow change = 0.448354
              Trial  3: relative flow change = 0.045920
              Trial  4: relative flow change = 0.001043
              Trial  5: relative flow change = 0.000001
     0:00:00: Balanced after 5 trials
     0:00:00: Reservoir 1 is emptying
     0:00:00: Tank 8 is filling at 1.21 m
   
   
  Hydraulic Status:
  -----------------------------------------------------------------------
     0:00:00: Balancing the network:
              Trial  1: relative flow change = 0.967205
              Trial  2: relative flow change = 0.458304
              Trial  3: relative flow change = 0.047856
              Trial  4: relative flow change = 0.001131
              Trial  5: relative flow change = 0.000001
     0:00:00: Balanced after 5 trials
     0:00:00: Reservoir 1 is emptying
     0:00:00: Tank 8 is filling at 1.22 m
   
   
  Hydraulic Status:
  -----------------------------------------------------------------------
     0:00:00: Balancing the network:
              Trial  1: relative flow change = 0.960829
              Trial  2: relative flow change = 0.447202
              Trial  3: relative flow change = 0.047197
              Trial  4: relative flow change = 0.001127
              Trial  5: relative flow change = 0.000001
     0:00:00: Balanced after 5 trials
     0:00:00: Reservoir 1 is emptying
     0:00:00: Tank 8 is filling at 1.23 m
   
   
  Hydraulic Status:
  -----------------------------------------------------------------------
     0:00:00: Balancing the network:
              Trial  1: relative flow change = 0.957280
              Trial  2: relative flow change = 0.444882
              Trial  3: relative flow change = 0.046843
              Trial  4: relative flow change = 0.001105
              Trial  5: relative flow change = 0.000001
     0:00:00: Balanced after 5 trials
     0:00:00: Reservoir 1 is emptying
     0:00:00: Tank 8 is filling at 1.21 m
   
   
  Hydraulic Status:
  -----------------------------------------------------------------------
     0:00:00: Balancing the network:
              Trial  1: relative flow change = 0.968712
              Trial  2: relative flow change = 0.453789
              Trial  3: relative flow change = 0.046227
              Trial  4: relative flow change = 0.001074
              Trial  5: relative flow change = 0.000001
     0:00:00: Balanced after 5 trials
     0:00:00: Reservoir 1 is emptying
     0:00:00: Tank 8 is filling at 1.23 m
   
   
  Hydraulic Status:
  -----------------------------------------------------------------------
     0:00:00: Balancing the network:
              Trial  1: relative flow change = 0.964752
              Trial  2: relative flow change = 0.446886
              Trial  3: relative flow change = 0.047555
              Trial  4: relative flow change = 0.001130
              Trial  5: relative flow change = 0.000001
     0:00:00: Balanced after 5 trials
     0:00:00: Reservoir 1 is emptying
     0:00:00: Tank 8 is filling at 1.22 m
   
   
  Hydraulic Status:
  -----------------------------------------------------------------------
     0:00:00: Balancing the network:
              Trial  1: relative flow change = 0.978527
              Trial  2: relative flow change = 0.454910
              Trial  3: relative flow change = 0.046437
              Trial  4: relative flow change = 0.001076
              Trial  5: relative flow change = 0.000001
     0:00:00: Balanced after 5 trials
     0:00:00: Reservoir 1 is emptying
     0:00:00: Tank 8 is filling at 1.21 m
   
   
  Hydraulic Status:
  -----------------------------------------------------------------------
     0:00:00: Balancing the network:
              Trial  1: relative flow change = 0.945900
              Trial  2: relative flow change = 0.445336
              Trial  3: relative flow change = 0.048285
              Trial  4: relative flow change = 0.001148
              Trial  5: relative flow change = 0.000001
     0:00:00: Balanced after 5 trials
     0:00:00: Reservoir 1 is emptying
     0:00:00: Tank 8 is filling at 1.21 m
   
   
  Hydraulic Status:
  -----------------------------------------------------------------------
     0:00:00: Balancing the network:
              Trial  1: relative flow change = 0.973697
              Trial  2: relative flow change = 0.455090
              Trial  3: relative flow change = 0.047321
              Trial  4: relative flow change = 0.001110
              Trial  5: relative flow change = 0.000001
     0:00:00: Balanced after 5 trials
     0:00:00: Reservoir 1 is emptying
     0:00:00: Tank 8 is filling at 1.22 m
   
   
  Hydraulic Status:
  -----------------------------------------------------------------------
     0:00:00: Balancing the network:
              Trial  1: relative flow change = 0.959003
              Trial  2: relative flow change = 0.446149
              Trial  3: relative flow change = 0.047591
              Trial  4: relative flow change = 0.001116
              Trial  5: relative flow change = 0.000001
     0:00:00: Balanced after 5 trials
     0:00:00: Reservoir 1 is emptying
     0:00:00: Tank 8 is filling at 1.21 m
   
   
  Hydraulic Status:
  -----------------------------------------------------------------------
     0:00:00: Balancing the network:
              Trial  1: relative flow change = 0.949045
              Trial  2: relative flow change = 0.447116
              Trial  3: relative flow change = 0.048671
              Trial  4: relative flow change = 0.001159
              Trial  5: relative flow change = 0.000001
     0:00:00: Balanced after 5 trials
     0:00:00: Reservoir 1 is emptying
     0:00:00: Tank 8 is filling at 1.22 m
   
   
  Hydraulic Status:
  -----------------------------------------------------------------------
     0:00:00: Balancing the network:
              Trial  1: relative flow change = 0.969321
              Trial  2: relative flow change = 0.450737
              Trial  3: relative flow change = 0.044829
              Trial  4: relative flow change = 0.001031
              Trial  5: relative flow change = 0.000001
     0:00:00: Balanced after 5 trials
     0:00:00: Reservoir 1 is emptying
     0:00:00: Tank 8 is filling at 1.22 m
   
   
  Hydraulic Status:
  -----------------------------------------------------------------------
     0:00:00: Balancing the network:
              Trial  1: relative flow change = 0.977762
              Trial  2: relative flow change = 0.452858
              Trial  3: relative flow change = 0.045625
              Trial  4: relative flow change = 0.001057
              Trial  5: relative flow change = 0.000001
     0:00:00: Balanced after 5 trials
     0:00:00: Reservoir 1 is emptying
     0:00:00: Tank 8 is filling at 1.22 m
   
   
  Hydraulic Status:
  -----------------------------------------------------------------------
     0:00:00: Balancing the network:
              Trial  1: relative flow change = 0.956742
              Trial  2: relative flow change = 0.448204
              Trial  3: relative flow change = 0.047458
              Trial  4: relative flow change = 0.001114
              Trial  5: relative flow change = 0.000001
     0:00:00: Balanced after 5 trials
     0:00:00: Reservoir 1 is emptying
     0:00:00: Tank 8 is filling at 1.22 m
   
   
  Hydraulic Status:
  -----------------------------------------------------------------------
     0:00:00: Balancing the network:
              Trial  1: relative flow change = 0.972029
              Trial  2: relative flow change = 0.446935
              Trial  3: relative flow change = 0.046669
              Trial  4: relative flow change = 0.001069
              Trial  5: relative flow change = 0.000001
     0:00:00: Balanced after 5 trials
     0:00:00: Reservoir 1 is emptying
     0:00:00: Tank 8 is filling at 1.22 m
   